Global frequency set at 1000000000000 ticks per second
gem5 Simulator System.  https://www.gem5.org
gem5 is copyrighted software; use the --copyright option for details.

gem5 version 25.1.0.0
gem5 compiled Feb 19 2026 10:12:44
gem5 started Feb 19 2026 16:03:48
gem5 executing on artecslab011, pid 586336
command line: ../../../gem5-pim/build/X86/gem5.opt add_matrix.py

Exit event triggered - mapping memory region in the simulated process
Mapped memory region at VA 0x10000000 to PA 0xC4000000
Mapped memory region at VA 0x20000000 to PA 0xD0000000
Mapped memory region at VA 0x30000000 to PA 0xD1000000
Mapped memory region at VA 0x40000000 to PA 0xD2000000
2310
2310
2310
Resultado de la suma matricial:
C[0][0] = 0
C[0][1] = 3
C[0][2] = 6
C[0][3] = 9
C[0][4] = 12
C[0][5] = 15
C[0][6] = 18
C[0][7] = 21
C[0][8] = 24
C[0][9] = 27
C[0][10] = 30
C[0][11] = 33
C[0][12] = 36
C[0][13] = 39
C[0][14] = 42
C[0][15] = 45
C[0][16] = 48
C[0][17] = 51
C[0][18] = 54
C[0][19] = 57
C[0][20] = 60
C[0][21] = 63
C[0][22] = 66
C[0][23] = 69
C[0][24] = 72
C[0][25] = 75
C[0][26] = 78
C[0][27] = 81
C[0][28] = 84
C[0][29] = 87
C[0][30] = 90
C[0][31] = 93
C[0][32] = 0
C[0][33] = 0
C[0][34] = 0
C[0][35] = 0
C[0][36] = 0
C[0][37] = 0
C[0][38] = 0
C[0][39] = 0
C[0][40] = 0
C[0][41] = 0
C[0][42] = 0
C[0][43] = 0
C[0][44] = 0
C[0][45] = 0
C[0][46] = 0
C[0][47] = 0
C[0][48] = 0
C[0][49] = 0
C[0][50] = 0
C[0][51] = 0
C[0][52] = 0
C[0][53] = 0
C[0][54] = 0
C[0][55] = 0
C[0][56] = 0
C[0][57] = 0
C[0][58] = 0
C[0][59] = 0
C[0][60] = 0
C[0][61] = 0
C[0][62] = 0
C[0][63] = 0
C[0][64] = 0
C[0][65] = 0
C[1][0] = 0
C[1][1] = 0
C[1][2] = 0
C[1][3] = 0
C[1][4] = 0
C[1][5] = 0
C[1][6] = 0
C[1][7] = 0
C[1][8] = 0
C[1][9] = 0
C[1][10] = 0
C[1][11] = 0
C[1][12] = 0
C[1][13] = 0
C[1][14] = 0
C[1][15] = 0
C[1][16] = 0
C[1][17] = 0
C[1][18] = 0
C[1][19] = 0
C[1][20] = 0
C[1][21] = 0
C[1][22] = 0
C[1][23] = 0
C[1][24] = 0
C[1][25] = 0
C[1][26] = 0
C[1][27] = 0
C[1][28] = 0
C[1][29] = 0
C[1][30] = 0
C[1][31] = 0
C[1][32] = 0
C[1][33] = 0
C[1][34] = 0
C[1][35] = 0
C[1][36] = 0
C[1][37] = 0
C[1][38] = 0
C[1][39] = 0
C[1][40] = 0
C[1][41] = 0
C[1][42] = 0
C[1][43] = 0
C[1][44] = 0
C[1][45] = 0
C[1][46] = 0
C[1][47] = 0
C[1][48] = 0
C[1][49] = 0
C[1][50] = 0
C[1][51] = 0
C[1][52] = 0
C[1][53] = 0
C[1][54] = 0
C[1][55] = 0
C[1][56] = 0
C[1][57] = 0
C[1][58] = 0
C[1][59] = 0
C[1][60] = 0
C[1][61] = 0
C[1][62] = 0
C[1][63] = 0
C[1][64] = 0
C[1][65] = 0
C[2][0] = 0
C[2][1] = 0
C[2][2] = 0
C[2][3] = 0
C[2][4] = 0
C[2][5] = 0
C[2][6] = 0
C[2][7] = 0
C[2][8] = 0
C[2][9] = 0
C[2][10] = 0
C[2][11] = 0
C[2][12] = 0
C[2][13] = 0
C[2][14] = 0
C[2][15] = 0
C[2][16] = 0
C[2][17] = 0
C[2][18] = 0
C[2][19] = 0
C[2][20] = 0
C[2][21] = 0
C[2][22] = 0
C[2][23] = 0
C[2][24] = 0
C[2][25] = 0
C[2][26] = 0
C[2][27] = 0
C[2][28] = 0
C[2][29] = 0
C[2][30] = 0
C[2][31] = 0
C[2][32] = 0
C[2][33] = 0
C[2][34] = 0
C[2][35] = 0
C[2][36] = 0
C[2][37] = 0
C[2][38] = 0
C[2][39] = 0
C[2][40] = 0
C[2][41] = 0
C[2][42] = 0
C[2][43] = 0
C[2][44] = 0
C[2][45] = 0
C[2][46] = 0
C[2][47] = 0
C[2][48] = 0
C[2][49] = 0
C[2][50] = 0
C[2][51] = 0
C[2][52] = 0
C[2][53] = 0
C[2][54] = 0
C[2][55] = 0
C[2][56] = 0
C[2][57] = 0
C[2][58] = 0
C[2][59] = 0
C[2][60] = 0
C[2][61] = 0
C[2][62] = 0
C[2][63] = 0
C[2][64] = 0
C[2][65] = 0
C[3][0] = 0
C[3][1] = 0
C[3][2] = 0
C[3][3] = 0
C[3][4] = 0
C[3][5] = 0
C[3][6] = 0
C[3][7] = 0
C[3][8] = 0
C[3][9] = 0
C[3][10] = 0
C[3][11] = 0
C[3][12] = 0
C[3][13] = 0
C[3][14] = 0
C[3][15] = 0
C[3][16] = 0
C[3][17] = 0
C[3][18] = 0
C[3][19] = 0
C[3][20] = 0
C[3][21] = 0
C[3][22] = 0
C[3][23] = 0
C[3][24] = 0
C[3][25] = 0
C[3][26] = 0
C[3][27] = 0
C[3][28] = 0
C[3][29] = 0
C[3][30] = 0
C[3][31] = 0
C[3][32] = 0
C[3][33] = 0
C[3][34] = 0
C[3][35] = 0
C[3][36] = 0
C[3][37] = 0
C[3][38] = 0
C[3][39] = 0
C[3][40] = 0
C[3][41] = 0
C[3][42] = 0
C[3][43] = 0
C[3][44] = 0
C[3][45] = 0
C[3][46] = 0
C[3][47] = 0
C[3][48] = 0
C[3][49] = 0
C[3][50] = 0
C[3][51] = 0
C[3][52] = 0
C[3][53] = 0
C[3][54] = 0
C[3][55] = 0
C[3][56] = 0
C[3][57] = 0
C[3][58] = 0
C[3][59] = 0
C[3][60] = 0
C[3][61] = 0
C[3][62] = 0
C[3][63] = 0
C[3][64] = 0
C[3][65] = 0
C[4][0] = 0
C[4][1] = 0
C[4][2] = 0
C[4][3] = 0
C[4][4] = 0
C[4][5] = 0
C[4][6] = 0
C[4][7] = 0
C[4][8] = 0
C[4][9] = 0
C[4][10] = 0
C[4][11] = 0
C[4][12] = 0
C[4][13] = 0
C[4][14] = 0
C[4][15] = 0
C[4][16] = 0
C[4][17] = 0
C[4][18] = 0
C[4][19] = 0
C[4][20] = 0
C[4][21] = 0
C[4][22] = 0
C[4][23] = 0
C[4][24] = 0
C[4][25] = 0
C[4][26] = 0
C[4][27] = 0
C[4][28] = 0
C[4][29] = 0
C[4][30] = 0
C[4][31] = 0
C[4][32] = 0
C[4][33] = 0
C[4][34] = 0
C[4][35] = 0
C[4][36] = 0
C[4][37] = 0
C[4][38] = 0
C[4][39] = 0
C[4][40] = 0
C[4][41] = 0
C[4][42] = 0
C[4][43] = 0
C[4][44] = 0
C[4][45] = 0
C[4][46] = 0
C[4][47] = 0
C[4][48] = 0
C[4][49] = 0
C[4][50] = 0
C[4][51] = 0
C[4][52] = 0
C[4][53] = 0
C[4][54] = 0
C[4][55] = 0
C[4][56] = 0
C[4][57] = 0
C[4][58] = 0
C[4][59] = 0
C[4][60] = 0
C[4][61] = 0
C[4][62] = 0
C[4][63] = 0
C[4][64] = 0
C[4][65] = 0
C[5][0] = 0
C[5][1] = 0
C[5][2] = 0
C[5][3] = 0
C[5][4] = 0
C[5][5] = 0
C[5][6] = 0
C[5][7] = 0
C[5][8] = 0
C[5][9] = 0
C[5][10] = 0
C[5][11] = 0
C[5][12] = 0
C[5][13] = 0
C[5][14] = 0
C[5][15] = 0
C[5][16] = 0
C[5][17] = 0
C[5][18] = 0
C[5][19] = 0
C[5][20] = 0
C[5][21] = 0
C[5][22] = 0
C[5][23] = 0
C[5][24] = 0
C[5][25] = 0
C[5][26] = 0
C[5][27] = 0
C[5][28] = 0
C[5][29] = 0
C[5][30] = 0
C[5][31] = 0
C[5][32] = 0
C[5][33] = 0
C[5][34] = 0
C[5][35] = 0
C[5][36] = 0
C[5][37] = 0
C[5][38] = 0
C[5][39] = 0
C[5][40] = 0
C[5][41] = 0
C[5][42] = 0
C[5][43] = 0
C[5][44] = 0
C[5][45] = 0
C[5][46] = 0
C[5][47] = 0
C[5][48] = 0
C[5][49] = 0
C[5][50] = 0
C[5][51] = 0
C[5][52] = 0
C[5][53] = 0
C[5][54] = 0
C[5][55] = 0
C[5][56] = 0
C[5][57] = 0
C[5][58] = 0
C[5][59] = 0
C[5][60] = 0
C[5][61] = 0
C[5][62] = 0
C[5][63] = 0
C[5][64] = 0
C[5][65] = 0
C[6][0] = 0
C[6][1] = 0
C[6][2] = 0
C[6][3] = 0
C[6][4] = 0
C[6][5] = 0
C[6][6] = 0
C[6][7] = 0
C[6][8] = 0
C[6][9] = 0
C[6][10] = 0
C[6][11] = 0
C[6][12] = 0
C[6][13] = 0
C[6][14] = 0
C[6][15] = 0
C[6][16] = 0
C[6][17] = 0
C[6][18] = 0
C[6][19] = 0
C[6][20] = 0
C[6][21] = 0
C[6][22] = 0
C[6][23] = 0
C[6][24] = 0
C[6][25] = 0
C[6][26] = 0
C[6][27] = 0
C[6][28] = 0
C[6][29] = 0
C[6][30] = 0
C[6][31] = 0
C[6][32] = 0
C[6][33] = 0
C[6][34] = 0
C[6][35] = 0
C[6][36] = 0
C[6][37] = 0
C[6][38] = 0
C[6][39] = 0
C[6][40] = 0
C[6][41] = 0
C[6][42] = 0
C[6][43] = 0
C[6][44] = 0
C[6][45] = 0
C[6][46] = 0
C[6][47] = 0
C[6][48] = 0
C[6][49] = 0
C[6][50] = 0
C[6][51] = 0
C[6][52] = 0
C[6][53] = 0
C[6][54] = 0
C[6][55] = 0
C[6][56] = 0
C[6][57] = 0
C[6][58] = 0
C[6][59] = 0
C[6][60] = 0
C[6][61] = 0
C[6][62] = 0
C[6][63] = 0
C[6][64] = 0
C[6][65] = 0
C[7][0] = 0
C[7][1] = 0
C[7][2] = 0
C[7][3] = 0
C[7][4] = 0
C[7][5] = 0
C[7][6] = 0
C[7][7] = 0
C[7][8] = 0
C[7][9] = 0
C[7][10] = 0
C[7][11] = 0
C[7][12] = 0
C[7][13] = 0
C[7][14] = 0
C[7][15] = 0
C[7][16] = 0
C[7][17] = 0
C[7][18] = 0
C[7][19] = 0
C[7][20] = 0
C[7][21] = 0
C[7][22] = 0
C[7][23] = 0
C[7][24] = 0
C[7][25] = 0
C[7][26] = 0
C[7][27] = 0
C[7][28] = 0
C[7][29] = 0
C[7][30] = 0
C[7][31] = 0
C[7][32] = 0
C[7][33] = 0
C[7][34] = 0
C[7][35] = 0
C[7][36] = 0
C[7][37] = 0
C[7][38] = 0
C[7][39] = 0
C[7][40] = 0
C[7][41] = 0
C[7][42] = 0
C[7][43] = 0
C[7][44] = 0
C[7][45] = 0
C[7][46] = 0
C[7][47] = 0
C[7][48] = 0
C[7][49] = 0
C[7][50] = 0
C[7][51] = 0
C[7][52] = 0
C[7][53] = 0
C[7][54] = 0
C[7][55] = 0
C[7][56] = 0
C[7][57] = 0
C[7][58] = 0
C[7][59] = 0
C[7][60] = 0
C[7][61] = 0
C[7][62] = 0
C[7][63] = 0
C[7][64] = 0
C[7][65] = 0
C[8][0] = 0
C[8][1] = 0
C[8][2] = 0
C[8][3] = 0
C[8][4] = 0
C[8][5] = 0
C[8][6] = 0
C[8][7] = 0
C[8][8] = 0
C[8][9] = 0
C[8][10] = 0
C[8][11] = 0
C[8][12] = 0
C[8][13] = 0
C[8][14] = 0
C[8][15] = 0
C[8][16] = 0
C[8][17] = 0
C[8][18] = 0
C[8][19] = 0
C[8][20] = 0
C[8][21] = 0
C[8][22] = 0
C[8][23] = 0
C[8][24] = 0
C[8][25] = 0
C[8][26] = 0
C[8][27] = 0
C[8][28] = 0
C[8][29] = 0
C[8][30] = 0
C[8][31] = 0
C[8][32] = 0
C[8][33] = 0
C[8][34] = 0
C[8][35] = 0
C[8][36] = 0
C[8][37] = 0
C[8][38] = 0
C[8][39] = 0
C[8][40] = 0
C[8][41] = 0
C[8][42] = 0
C[8][43] = 0
C[8][44] = 0
C[8][45] = 0
C[8][46] = 0
C[8][47] = 0
C[8][48] = 0
C[8][49] = 0
C[8][50] = 0
C[8][51] = 0
C[8][52] = 0
C[8][53] = 0
C[8][54] = 0
C[8][55] = 0
C[8][56] = 0
C[8][57] = 0
C[8][58] = 0
C[8][59] = 0
C[8][60] = 0
C[8][61] = 0
C[8][62] = 0
C[8][63] = 0
C[8][64] = 0
C[8][65] = 0
C[9][0] = 0
C[9][1] = 0
C[9][2] = 0
C[9][3] = 0
C[9][4] = 0
C[9][5] = 0
C[9][6] = 0
C[9][7] = 0
C[9][8] = 0
C[9][9] = 0
C[9][10] = 0
C[9][11] = 0
C[9][12] = 0
C[9][13] = 0
C[9][14] = 0
C[9][15] = 0
C[9][16] = 0
C[9][17] = 0
C[9][18] = 0
C[9][19] = 0
C[9][20] = 0
C[9][21] = 0
C[9][22] = 0
C[9][23] = 0
C[9][24] = 0
C[9][25] = 0
C[9][26] = 0
C[9][27] = 0
C[9][28] = 0
C[9][29] = 0
C[9][30] = 0
C[9][31] = 0
C[9][32] = 0
C[9][33] = 0
C[9][34] = 0
C[9][35] = 0
C[9][36] = 0
C[9][37] = 0
C[9][38] = 0
C[9][39] = 0
C[9][40] = 0
C[9][41] = 0
C[9][42] = 0
C[9][43] = 0
C[9][44] = 0
C[9][45] = 0
C[9][46] = 0
C[9][47] = 0
C[9][48] = 0
C[9][49] = 0
C[9][50] = 0
C[9][51] = 0
C[9][52] = 0
C[9][53] = 0
C[9][54] = 0
C[9][55] = 0
C[9][56] = 0
C[9][57] = 0
C[9][58] = 0
C[9][59] = 0
C[9][60] = 0
C[9][61] = 0
C[9][62] = 0
C[9][63] = 0
C[9][64] = 0
C[9][65] = 0
C[10][0] = 0
C[10][1] = 0
C[10][2] = 0
C[10][3] = 0
C[10][4] = 0
C[10][5] = 0
C[10][6] = 0
C[10][7] = 0
C[10][8] = 0
C[10][9] = 0
C[10][10] = 0
C[10][11] = 0
C[10][12] = 0
C[10][13] = 0
C[10][14] = 0
C[10][15] = 0
C[10][16] = 0
C[10][17] = 0
C[10][18] = 0
C[10][19] = 0
C[10][20] = 0
C[10][21] = 0
C[10][22] = 0
C[10][23] = 0
C[10][24] = 0
C[10][25] = 0
C[10][26] = 0
C[10][27] = 0
C[10][28] = 0
C[10][29] = 0
C[10][30] = 0
C[10][31] = 0
C[10][32] = 0
C[10][33] = 0
C[10][34] = 0
C[10][35] = 0
C[10][36] = 0
C[10][37] = 0
C[10][38] = 0
C[10][39] = 0
C[10][40] = 0
C[10][41] = 0
C[10][42] = 0
C[10][43] = 0
C[10][44] = 0
C[10][45] = 0
C[10][46] = 0
C[10][47] = 0
C[10][48] = 0
C[10][49] = 0
C[10][50] = 0
C[10][51] = 0
C[10][52] = 0
C[10][53] = 0
C[10][54] = 0
C[10][55] = 0
C[10][56] = 0
C[10][57] = 0
C[10][58] = 0
C[10][59] = 0
C[10][60] = 0
C[10][61] = 0
C[10][62] = 0
C[10][63] = 0
C[10][64] = 0
C[10][65] = 0
C[11][0] = 0
C[11][1] = 0
C[11][2] = 0
C[11][3] = 0
C[11][4] = 0
C[11][5] = 0
C[11][6] = 0
C[11][7] = 0
C[11][8] = 0
C[11][9] = 0
C[11][10] = 0
C[11][11] = 0
C[11][12] = 0
C[11][13] = 0
C[11][14] = 0
C[11][15] = 0
C[11][16] = 0
C[11][17] = 0
C[11][18] = 0
C[11][19] = 0
C[11][20] = 0
C[11][21] = 0
C[11][22] = 0
C[11][23] = 0
C[11][24] = 0
C[11][25] = 0
C[11][26] = 0
C[11][27] = 0
C[11][28] = 0
C[11][29] = 0
C[11][30] = 0
C[11][31] = 0
C[11][32] = 0
C[11][33] = 0
C[11][34] = 0
C[11][35] = 0
C[11][36] = 0
C[11][37] = 0
C[11][38] = 0
C[11][39] = 0
C[11][40] = 0
C[11][41] = 0
C[11][42] = 0
C[11][43] = 0
C[11][44] = 0
C[11][45] = 0
C[11][46] = 0
C[11][47] = 0
C[11][48] = 0
C[11][49] = 0
C[11][50] = 0
C[11][51] = 0
C[11][52] = 0
C[11][53] = 0
C[11][54] = 0
C[11][55] = 0
C[11][56] = 0
C[11][57] = 0
C[11][58] = 0
C[11][59] = 0
C[11][60] = 0
C[11][61] = 0
C[11][62] = 0
C[11][63] = 0
C[11][64] = 0
C[11][65] = 0
C[12][0] = 0
C[12][1] = 0
C[12][2] = 0
C[12][3] = 0
C[12][4] = 0
C[12][5] = 0
C[12][6] = 0
C[12][7] = 0
C[12][8] = 0
C[12][9] = 0
C[12][10] = 0
C[12][11] = 0
C[12][12] = 0
C[12][13] = 0
C[12][14] = 0
C[12][15] = 0
C[12][16] = 0
C[12][17] = 0
C[12][18] = 0
C[12][19] = 0
C[12][20] = 0
C[12][21] = 0
C[12][22] = 0
C[12][23] = 0
C[12][24] = 0
C[12][25] = 0
C[12][26] = 0
C[12][27] = 0
C[12][28] = 0
C[12][29] = 0
C[12][30] = 0
C[12][31] = 0
C[12][32] = 0
C[12][33] = 0
C[12][34] = 0
C[12][35] = 0
C[12][36] = 0
C[12][37] = 0
C[12][38] = 0
C[12][39] = 0
C[12][40] = 0
C[12][41] = 0
C[12][42] = 0
C[12][43] = 0
C[12][44] = 0
C[12][45] = 0
C[12][46] = 0
C[12][47] = 0
C[12][48] = 0
C[12][49] = 0
C[12][50] = 0
C[12][51] = 0
C[12][52] = 0
C[12][53] = 0
C[12][54] = 0
C[12][55] = 0
C[12][56] = 0
C[12][57] = 0
C[12][58] = 0
C[12][59] = 0
C[12][60] = 0
C[12][61] = 0
C[12][62] = 0
C[12][63] = 0
C[12][64] = 0
C[12][65] = 0
C[13][0] = 0
C[13][1] = 0
C[13][2] = 0
C[13][3] = 0
C[13][4] = 0
C[13][5] = 0
C[13][6] = 0
C[13][7] = 0
C[13][8] = 0
C[13][9] = 0
C[13][10] = 0
C[13][11] = 0
C[13][12] = 0
C[13][13] = 0
C[13][14] = 0
C[13][15] = 0
C[13][16] = 0
C[13][17] = 0
C[13][18] = 0
C[13][19] = 0
C[13][20] = 0
C[13][21] = 0
C[13][22] = 0
C[13][23] = 0
C[13][24] = 0
C[13][25] = 0
C[13][26] = 0
C[13][27] = 0
C[13][28] = 0
C[13][29] = 0
C[13][30] = 0
C[13][31] = 0
C[13][32] = 0
C[13][33] = 0
C[13][34] = 0
C[13][35] = 0
C[13][36] = 0
C[13][37] = 0
C[13][38] = 0
C[13][39] = 0
C[13][40] = 0
C[13][41] = 0
C[13][42] = 0
C[13][43] = 0
C[13][44] = 0
C[13][45] = 0
C[13][46] = 0
C[13][47] = 0
C[13][48] = 0
C[13][49] = 0
C[13][50] = 0
C[13][51] = 0
C[13][52] = 0
C[13][53] = 0
C[13][54] = 0
C[13][55] = 0
C[13][56] = 0
C[13][57] = 0
C[13][58] = 0
C[13][59] = 0
C[13][60] = 0
C[13][61] = 0
C[13][62] = 0
C[13][63] = 0
C[13][64] = 0
C[13][65] = 0
C[14][0] = 0
C[14][1] = 0
C[14][2] = 0
C[14][3] = 0
C[14][4] = 0
C[14][5] = 0
C[14][6] = 0
C[14][7] = 0
C[14][8] = 0
C[14][9] = 0
C[14][10] = 0
C[14][11] = 0
C[14][12] = 0
C[14][13] = 0
C[14][14] = 0
C[14][15] = 0
C[14][16] = 0
C[14][17] = 0
C[14][18] = 0
C[14][19] = 0
C[14][20] = 0
C[14][21] = 0
C[14][22] = 0
C[14][23] = 0
C[14][24] = 0
C[14][25] = 0
C[14][26] = 0
C[14][27] = 0
C[14][28] = 0
C[14][29] = 0
C[14][30] = 0
C[14][31] = 0
C[14][32] = 0
C[14][33] = 0
C[14][34] = 0
C[14][35] = 0
C[14][36] = 0
C[14][37] = 0
C[14][38] = 0
C[14][39] = 0
C[14][40] = 0
C[14][41] = 0
C[14][42] = 0
C[14][43] = 0
C[14][44] = 0
C[14][45] = 0
C[14][46] = 0
C[14][47] = 0
C[14][48] = 0
C[14][49] = 0
C[14][50] = 0
C[14][51] = 0
C[14][52] = 0
C[14][53] = 0
C[14][54] = 0
C[14][55] = 0
C[14][56] = 0
C[14][57] = 0
C[14][58] = 0
C[14][59] = 0
C[14][60] = 0
C[14][61] = 0
C[14][62] = 0
C[14][63] = 0
C[14][64] = 0
C[14][65] = 0
C[15][0] = 0
C[15][1] = 0
C[15][2] = 0
C[15][3] = 0
C[15][4] = 0
C[15][5] = 0
C[15][6] = 0
C[15][7] = 0
C[15][8] = 0
C[15][9] = 0
C[15][10] = 0
C[15][11] = 0
C[15][12] = 0
C[15][13] = 0
C[15][14] = 0
C[15][15] = 0
C[15][16] = 0
C[15][17] = 0
C[15][18] = 0
C[15][19] = 0
C[15][20] = 0
C[15][21] = 0
C[15][22] = 0
C[15][23] = 0
C[15][24] = 0
C[15][25] = 0
C[15][26] = 0
C[15][27] = 0
C[15][28] = 0
C[15][29] = 0
C[15][30] = 0
C[15][31] = 0
C[15][32] = 0
C[15][33] = 0
C[15][34] = 0
C[15][35] = 0
C[15][36] = 0
C[15][37] = 0
C[15][38] = 0
C[15][39] = 0
C[15][40] = 0
C[15][41] = 0
C[15][42] = 0
C[15][43] = 0
C[15][44] = 0
C[15][45] = 0
C[15][46] = 0
C[15][47] = 0
C[15][48] = 0
C[15][49] = 0
C[15][50] = 0
C[15][51] = 0
C[15][52] = 0
C[15][53] = 0
C[15][54] = 0
C[15][55] = 0
C[15][56] = 0
C[15][57] = 0
C[15][58] = 0
C[15][59] = 0
C[15][60] = 0
C[15][61] = 0
C[15][62] = 0
C[15][63] = 0
C[15][64] = 0
C[15][65] = 0
C[16][0] = 0
C[16][1] = 0
C[16][2] = 0
C[16][3] = 0
C[16][4] = 0
C[16][5] = 0
C[16][6] = 0
C[16][7] = 0
C[16][8] = 0
C[16][9] = 0
C[16][10] = 0
C[16][11] = 0
C[16][12] = 0
C[16][13] = 0
C[16][14] = 0
C[16][15] = 0
C[16][16] = 0
C[16][17] = 0
C[16][18] = 0
C[16][19] = 0
C[16][20] = 0
C[16][21] = 0
C[16][22] = 0
C[16][23] = 0
C[16][24] = 0
C[16][25] = 0
C[16][26] = 0
C[16][27] = 0
C[16][28] = 0
C[16][29] = 0
C[16][30] = 0
C[16][31] = 0
C[16][32] = 0
C[16][33] = 0
C[16][34] = 0
C[16][35] = 0
C[16][36] = 0
C[16][37] = 0
C[16][38] = 0
C[16][39] = 0
C[16][40] = 0
C[16][41] = 0
C[16][42] = 0
C[16][43] = 0
C[16][44] = 0
C[16][45] = 0
C[16][46] = 0
C[16][47] = 0
C[16][48] = 0
C[16][49] = 0
C[16][50] = 0
C[16][51] = 0
C[16][52] = 0
C[16][53] = 0
C[16][54] = 0
C[16][55] = 0
C[16][56] = 0
C[16][57] = 0
C[16][58] = 0
C[16][59] = 0
C[16][60] = 0
C[16][61] = 0
C[16][62] = 0
C[16][63] = 0
C[16][64] = 0
C[16][65] = 0
C[17][0] = 0
C[17][1] = 0
C[17][2] = 0
C[17][3] = 0
C[17][4] = 0
C[17][5] = 0
C[17][6] = 0
C[17][7] = 0
C[17][8] = 0
C[17][9] = 0
C[17][10] = 0
C[17][11] = 0
C[17][12] = 0
C[17][13] = 0
C[17][14] = 0
C[17][15] = 0
C[17][16] = 0
C[17][17] = 0
C[17][18] = 0
C[17][19] = 0
C[17][20] = 0
C[17][21] = 0
C[17][22] = 0
C[17][23] = 0
C[17][24] = 0
C[17][25] = 0
C[17][26] = 0
C[17][27] = 0
C[17][28] = 0
C[17][29] = 0
C[17][30] = 0
C[17][31] = 0
C[17][32] = 0
C[17][33] = 0
C[17][34] = 0
C[17][35] = 0
C[17][36] = 0
C[17][37] = 0
C[17][38] = 0
C[17][39] = 0
C[17][40] = 0
C[17][41] = 0
C[17][42] = 0
C[17][43] = 0
C[17][44] = 0
C[17][45] = 0
C[17][46] = 0
C[17][47] = 0
C[17][48] = 0
C[17][49] = 0
C[17][50] = 0
C[17][51] = 0
C[17][52] = 0
C[17][53] = 0
C[17][54] = 0
C[17][55] = 0
C[17][56] = 0
C[17][57] = 0
C[17][58] = 0
C[17][59] = 0
C[17][60] = 0
C[17][61] = 0
C[17][62] = 0
C[17][63] = 0
C[17][64] = 0
C[17][65] = 0
C[18][0] = 0
C[18][1] = 0
C[18][2] = 0
C[18][3] = 0
C[18][4] = 0
C[18][5] = 0
C[18][6] = 0
C[18][7] = 0
C[18][8] = 0
C[18][9] = 0
C[18][10] = 0
C[18][11] = 0
C[18][12] = 0
C[18][13] = 0
C[18][14] = 0
C[18][15] = 0
C[18][16] = 0
C[18][17] = 0
C[18][18] = 0
C[18][19] = 0
C[18][20] = 0
C[18][21] = 0
C[18][22] = 0
C[18][23] = 0
C[18][24] = 0
C[18][25] = 0
C[18][26] = 0
C[18][27] = 0
C[18][28] = 0
C[18][29] = 0
C[18][30] = 0
C[18][31] = 0
C[18][32] = 0
C[18][33] = 0
C[18][34] = 0
C[18][35] = 0
C[18][36] = 0
C[18][37] = 0
C[18][38] = 0
C[18][39] = 0
C[18][40] = 0
C[18][41] = 0
C[18][42] = 0
C[18][43] = 0
C[18][44] = 0
C[18][45] = 0
C[18][46] = 0
C[18][47] = 0
C[18][48] = 0
C[18][49] = 0
C[18][50] = 0
C[18][51] = 0
C[18][52] = 0
C[18][53] = 0
C[18][54] = 0
C[18][55] = 0
C[18][56] = 0
C[18][57] = 0
C[18][58] = 0
C[18][59] = 0
C[18][60] = 0
C[18][61] = 0
C[18][62] = 0
C[18][63] = 0
C[18][64] = 0
C[18][65] = 0
C[19][0] = 0
C[19][1] = 0
C[19][2] = 0
C[19][3] = 0
C[19][4] = 0
C[19][5] = 0
C[19][6] = 0
C[19][7] = 0
C[19][8] = 0
C[19][9] = 0
C[19][10] = 0
C[19][11] = 0
C[19][12] = 0
C[19][13] = 0
C[19][14] = 0
C[19][15] = 0
C[19][16] = 0
C[19][17] = 0
C[19][18] = 0
C[19][19] = 0
C[19][20] = 0
C[19][21] = 0
C[19][22] = 0
C[19][23] = 0
C[19][24] = 0
C[19][25] = 0
C[19][26] = 0
C[19][27] = 0
C[19][28] = 0
C[19][29] = 0
C[19][30] = 0
C[19][31] = 0
C[19][32] = 0
C[19][33] = 0
C[19][34] = 0
C[19][35] = 0
C[19][36] = 0
C[19][37] = 0
C[19][38] = 0
C[19][39] = 0
C[19][40] = 0
C[19][41] = 0
C[19][42] = 0
C[19][43] = 0
C[19][44] = 0
C[19][45] = 0
C[19][46] = 0
C[19][47] = 0
C[19][48] = 0
C[19][49] = 0
C[19][50] = 0
C[19][51] = 0
C[19][52] = 0
C[19][53] = 0
C[19][54] = 0
C[19][55] = 0
C[19][56] = 0
C[19][57] = 0
C[19][58] = 0
C[19][59] = 0
C[19][60] = 0
C[19][61] = 0
C[19][62] = 0
C[19][63] = 0
C[19][64] = 0
C[19][65] = 0
C[20][0] = 0
C[20][1] = 0
C[20][2] = 0
C[20][3] = 0
C[20][4] = 0
C[20][5] = 0
C[20][6] = 0
C[20][7] = 0
C[20][8] = 0
C[20][9] = 0
C[20][10] = 0
C[20][11] = 0
C[20][12] = 0
C[20][13] = 0
C[20][14] = 0
C[20][15] = 0
C[20][16] = 0
C[20][17] = 0
C[20][18] = 0
C[20][19] = 0
C[20][20] = 0
C[20][21] = 0
C[20][22] = 0
C[20][23] = 0
C[20][24] = 0
C[20][25] = 0
C[20][26] = 0
C[20][27] = 0
C[20][28] = 0
C[20][29] = 0
C[20][30] = 0
C[20][31] = 0
C[20][32] = 0
C[20][33] = 0
C[20][34] = 0
C[20][35] = 0
C[20][36] = 0
C[20][37] = 0
C[20][38] = 0
C[20][39] = 0
C[20][40] = 0
C[20][41] = 0
C[20][42] = 0
C[20][43] = 0
C[20][44] = 0
C[20][45] = 0
C[20][46] = 0
C[20][47] = 0
C[20][48] = 0
C[20][49] = 0
C[20][50] = 0
C[20][51] = 0
C[20][52] = 0
C[20][53] = 0
C[20][54] = 0
C[20][55] = 0
C[20][56] = 0
C[20][57] = 0
C[20][58] = 0
C[20][59] = 0
C[20][60] = 0
C[20][61] = 0
C[20][62] = 0
C[20][63] = 0
C[20][64] = 0
C[20][65] = 0
C[21][0] = 0
C[21][1] = 0
C[21][2] = 0
C[21][3] = 0
C[21][4] = 0
C[21][5] = 0
C[21][6] = 0
C[21][7] = 0
C[21][8] = 0
C[21][9] = 0
C[21][10] = 0
C[21][11] = 0
C[21][12] = 0
C[21][13] = 0
C[21][14] = 0
C[21][15] = 0
C[21][16] = 0
C[21][17] = 0
C[21][18] = 0
C[21][19] = 0
C[21][20] = 0
C[21][21] = 0
C[21][22] = 0
C[21][23] = 0
C[21][24] = 0
C[21][25] = 0
C[21][26] = 0
C[21][27] = 0
C[21][28] = 0
C[21][29] = 0
C[21][30] = 0
C[21][31] = 0
C[21][32] = 0
C[21][33] = 0
C[21][34] = 0
C[21][35] = 0
C[21][36] = 0
C[21][37] = 0
C[21][38] = 0
C[21][39] = 0
C[21][40] = 0
C[21][41] = 0
C[21][42] = 0
C[21][43] = 0
C[21][44] = 0
C[21][45] = 0
C[21][46] = 0
C[21][47] = 0
C[21][48] = 0
C[21][49] = 0
C[21][50] = 0
C[21][51] = 0
C[21][52] = 0
C[21][53] = 0
C[21][54] = 0
C[21][55] = 0
C[21][56] = 0
C[21][57] = 0
C[21][58] = 0
C[21][59] = 0
C[21][60] = 0
C[21][61] = 0
C[21][62] = 0
C[21][63] = 0
C[21][64] = 0
C[21][65] = 0
C[22][0] = 0
C[22][1] = 0
C[22][2] = 0
C[22][3] = 0
C[22][4] = 0
C[22][5] = 0
C[22][6] = 0
C[22][7] = 0
C[22][8] = 0
C[22][9] = 0
C[22][10] = 0
C[22][11] = 0
C[22][12] = 0
C[22][13] = 0
C[22][14] = 0
C[22][15] = 0
C[22][16] = 0
C[22][17] = 0
C[22][18] = 0
C[22][19] = 0
C[22][20] = 0
C[22][21] = 0
C[22][22] = 0
C[22][23] = 0
C[22][24] = 0
C[22][25] = 0
C[22][26] = 0
C[22][27] = 0
C[22][28] = 0
C[22][29] = 0
C[22][30] = 0
C[22][31] = 0
C[22][32] = 0
C[22][33] = 0
C[22][34] = 0
C[22][35] = 0
C[22][36] = 0
C[22][37] = 0
C[22][38] = 0
C[22][39] = 0
C[22][40] = 0
C[22][41] = 0
C[22][42] = 0
C[22][43] = 0
C[22][44] = 0
C[22][45] = 0
C[22][46] = 0
C[22][47] = 0
C[22][48] = 0
C[22][49] = 0
C[22][50] = 0
C[22][51] = 0
C[22][52] = 0
C[22][53] = 0
C[22][54] = 0
C[22][55] = 0
C[22][56] = 0
C[22][57] = 0
C[22][58] = 0
C[22][59] = 0
C[22][60] = 0
C[22][61] = 0
C[22][62] = 0
C[22][63] = 0
C[22][64] = 0
C[22][65] = 0
C[23][0] = 0
C[23][1] = 0
C[23][2] = 0
C[23][3] = 0
C[23][4] = 0
C[23][5] = 0
C[23][6] = 0
C[23][7] = 0
C[23][8] = 0
C[23][9] = 0
C[23][10] = 0
C[23][11] = 0
C[23][12] = 0
C[23][13] = 0
C[23][14] = 0
C[23][15] = 0
C[23][16] = 0
C[23][17] = 0
C[23][18] = 0
C[23][19] = 0
C[23][20] = 0
C[23][21] = 0
C[23][22] = 0
C[23][23] = 0
C[23][24] = 0
C[23][25] = 0
C[23][26] = 0
C[23][27] = 0
C[23][28] = 0
C[23][29] = 0
C[23][30] = 0
C[23][31] = 0
C[23][32] = 0
C[23][33] = 0
C[23][34] = 0
C[23][35] = 0
C[23][36] = 0
C[23][37] = 0
C[23][38] = 0
C[23][39] = 0
C[23][40] = 0
C[23][41] = 0
C[23][42] = 0
C[23][43] = 0
C[23][44] = 0
C[23][45] = 0
C[23][46] = 0
C[23][47] = 0
C[23][48] = 0
C[23][49] = 0
C[23][50] = 0
C[23][51] = 0
C[23][52] = 0
C[23][53] = 0
C[23][54] = 0
C[23][55] = 0
C[23][56] = 0
C[23][57] = 0
C[23][58] = 0
C[23][59] = 0
C[23][60] = 0
C[23][61] = 0
C[23][62] = 0
C[23][63] = 0
C[23][64] = 0
C[23][65] = 0
C[24][0] = 0
C[24][1] = 0
C[24][2] = 0
C[24][3] = 0
C[24][4] = 0
C[24][5] = 0
C[24][6] = 0
C[24][7] = 0
C[24][8] = 0
C[24][9] = 0
C[24][10] = 0
C[24][11] = 0
C[24][12] = 0
C[24][13] = 0
C[24][14] = 0
C[24][15] = 0
C[24][16] = 0
C[24][17] = 0
C[24][18] = 0
C[24][19] = 0
C[24][20] = 0
C[24][21] = 0
C[24][22] = 0
C[24][23] = 0
C[24][24] = 0
C[24][25] = 0
C[24][26] = 0
C[24][27] = 0
C[24][28] = 0
C[24][29] = 0
C[24][30] = 0
C[24][31] = 0
C[24][32] = 0
C[24][33] = 0
C[24][34] = 0
C[24][35] = 0
C[24][36] = 0
C[24][37] = 0
C[24][38] = 0
C[24][39] = 0
C[24][40] = 0
C[24][41] = 0
C[24][42] = 0
C[24][43] = 0
C[24][44] = 0
C[24][45] = 0
C[24][46] = 0
C[24][47] = 0
C[24][48] = 0
C[24][49] = 0
C[24][50] = 0
C[24][51] = 0
C[24][52] = 0
C[24][53] = 0
C[24][54] = 0
C[24][55] = 0
C[24][56] = 0
C[24][57] = 0
C[24][58] = 0
C[24][59] = 0
C[24][60] = 0
C[24][61] = 0
C[24][62] = 0
C[24][63] = 0
C[24][64] = 0
C[24][65] = 0
C[25][0] = 0
C[25][1] = 0
C[25][2] = 0
C[25][3] = 0
C[25][4] = 0
C[25][5] = 0
C[25][6] = 0
C[25][7] = 0
C[25][8] = 0
C[25][9] = 0
C[25][10] = 0
C[25][11] = 0
C[25][12] = 0
C[25][13] = 0
C[25][14] = 0
C[25][15] = 0
C[25][16] = 0
C[25][17] = 0
C[25][18] = 0
C[25][19] = 0
C[25][20] = 0
C[25][21] = 0
C[25][22] = 0
C[25][23] = 0
C[25][24] = 0
C[25][25] = 0
C[25][26] = 0
C[25][27] = 0
C[25][28] = 0
C[25][29] = 0
C[25][30] = 0
C[25][31] = 0
C[25][32] = 0
C[25][33] = 0
C[25][34] = 0
C[25][35] = 0
C[25][36] = 0
C[25][37] = 0
C[25][38] = 0
C[25][39] = 0
C[25][40] = 0
C[25][41] = 0
C[25][42] = 0
C[25][43] = 0
C[25][44] = 0
C[25][45] = 0
C[25][46] = 0
C[25][47] = 0
C[25][48] = 0
C[25][49] = 0
C[25][50] = 0
C[25][51] = 0
C[25][52] = 0
C[25][53] = 0
C[25][54] = 0
C[25][55] = 0
C[25][56] = 0
C[25][57] = 0
C[25][58] = 0
C[25][59] = 0
C[25][60] = 0
C[25][61] = 0
C[25][62] = 0
C[25][63] = 0
C[25][64] = 0
C[25][65] = 0
C[26][0] = 0
C[26][1] = 0
C[26][2] = 0
C[26][3] = 0
C[26][4] = 0
C[26][5] = 0
C[26][6] = 0
C[26][7] = 0
C[26][8] = 0
C[26][9] = 0
C[26][10] = 0
C[26][11] = 0
C[26][12] = 0
C[26][13] = 0
C[26][14] = 0
C[26][15] = 0
C[26][16] = 0
C[26][17] = 0
C[26][18] = 0
C[26][19] = 0
C[26][20] = 0
C[26][21] = 0
C[26][22] = 0
C[26][23] = 0
C[26][24] = 0
C[26][25] = 0
C[26][26] = 0
C[26][27] = 0
C[26][28] = 0
C[26][29] = 0
C[26][30] = 0
C[26][31] = 0
C[26][32] = 0
C[26][33] = 0
C[26][34] = 0
C[26][35] = 0
C[26][36] = 0
C[26][37] = 0
C[26][38] = 0
C[26][39] = 0
C[26][40] = 0
C[26][41] = 0
C[26][42] = 0
C[26][43] = 0
C[26][44] = 0
C[26][45] = 0
C[26][46] = 0
C[26][47] = 0
C[26][48] = 0
C[26][49] = 0
C[26][50] = 0
C[26][51] = 0
C[26][52] = 0
C[26][53] = 0
C[26][54] = 0
C[26][55] = 0
C[26][56] = 0
C[26][57] = 0
C[26][58] = 0
C[26][59] = 0
C[26][60] = 0
C[26][61] = 0
C[26][62] = 0
C[26][63] = 0
C[26][64] = 0
C[26][65] = 0
C[27][0] = 0
C[27][1] = 0
C[27][2] = 0
C[27][3] = 0
C[27][4] = 0
C[27][5] = 0
C[27][6] = 0
C[27][7] = 0
C[27][8] = 0
C[27][9] = 0
C[27][10] = 0
C[27][11] = 0
C[27][12] = 0
C[27][13] = 0
C[27][14] = 0
C[27][15] = 0
C[27][16] = 0
C[27][17] = 0
C[27][18] = 0
C[27][19] = 0
C[27][20] = 0
C[27][21] = 0
C[27][22] = 0
C[27][23] = 0
C[27][24] = 0
C[27][25] = 0
C[27][26] = 0
C[27][27] = 0
C[27][28] = 0
C[27][29] = 0
C[27][30] = 0
C[27][31] = 0
C[27][32] = 0
C[27][33] = 0
C[27][34] = 0
C[27][35] = 0
C[27][36] = 0
C[27][37] = 0
C[27][38] = 0
C[27][39] = 0
C[27][40] = 0
C[27][41] = 0
C[27][42] = 0
C[27][43] = 0
C[27][44] = 0
C[27][45] = 0
C[27][46] = 0
C[27][47] = 0
C[27][48] = 0
C[27][49] = 0
C[27][50] = 0
C[27][51] = 0
C[27][52] = 0
C[27][53] = 0
C[27][54] = 0
C[27][55] = 0
C[27][56] = 0
C[27][57] = 0
C[27][58] = 0
C[27][59] = 0
C[27][60] = 0
C[27][61] = 0
C[27][62] = 0
C[27][63] = 0
C[27][64] = 0
C[27][65] = 0
C[28][0] = 0
C[28][1] = 0
C[28][2] = 0
C[28][3] = 0
C[28][4] = 0
C[28][5] = 0
C[28][6] = 0
C[28][7] = 0
C[28][8] = 0
C[28][9] = 0
C[28][10] = 0
C[28][11] = 0
C[28][12] = 0
C[28][13] = 0
C[28][14] = 0
C[28][15] = 0
C[28][16] = 0
C[28][17] = 0
C[28][18] = 0
C[28][19] = 0
C[28][20] = 0
C[28][21] = 0
C[28][22] = 0
C[28][23] = 0
C[28][24] = 0
C[28][25] = 0
C[28][26] = 0
C[28][27] = 0
C[28][28] = 0
C[28][29] = 0
C[28][30] = 0
C[28][31] = 0
C[28][32] = 0
C[28][33] = 0
C[28][34] = 0
C[28][35] = 0
C[28][36] = 0
C[28][37] = 0
C[28][38] = 0
C[28][39] = 0
C[28][40] = 0
C[28][41] = 0
C[28][42] = 0
C[28][43] = 0
C[28][44] = 0
C[28][45] = 0
C[28][46] = 0
C[28][47] = 0
C[28][48] = 0
C[28][49] = 0
C[28][50] = 0
C[28][51] = 0
C[28][52] = 0
C[28][53] = 0
C[28][54] = 0
C[28][55] = 0
C[28][56] = 0
C[28][57] = 0
C[28][58] = 0
C[28][59] = 0
C[28][60] = 0
C[28][61] = 0
C[28][62] = 0
C[28][63] = 0
C[28][64] = 0
C[28][65] = 0
C[29][0] = 0
C[29][1] = 0
C[29][2] = 0
C[29][3] = 0
C[29][4] = 0
C[29][5] = 0
C[29][6] = 0
C[29][7] = 0
C[29][8] = 0
C[29][9] = 0
C[29][10] = 0
C[29][11] = 0
C[29][12] = 0
C[29][13] = 0
C[29][14] = 0
C[29][15] = 0
C[29][16] = 0
C[29][17] = 0
C[29][18] = 0
C[29][19] = 0
C[29][20] = 0
C[29][21] = 0
C[29][22] = 0
C[29][23] = 0
C[29][24] = 0
C[29][25] = 0
C[29][26] = 0
C[29][27] = 0
C[29][28] = 0
C[29][29] = 0
C[29][30] = 0
C[29][31] = 0
C[29][32] = 0
C[29][33] = 0
C[29][34] = 0
C[29][35] = 0
C[29][36] = 0
C[29][37] = 0
C[29][38] = 0
C[29][39] = 0
C[29][40] = 0
C[29][41] = 0
C[29][42] = 0
C[29][43] = 0
C[29][44] = 0
C[29][45] = 0
C[29][46] = 0
C[29][47] = 0
C[29][48] = 0
C[29][49] = 0
C[29][50] = 0
C[29][51] = 0
C[29][52] = 0
C[29][53] = 0
C[29][54] = 0
C[29][55] = 0
C[29][56] = 0
C[29][57] = 0
C[29][58] = 0
C[29][59] = 0
C[29][60] = 0
C[29][61] = 0
C[29][62] = 0
C[29][63] = 0
C[29][64] = 0
C[29][65] = 0
C[30][0] = 0
C[30][1] = 0
C[30][2] = 0
C[30][3] = 0
C[30][4] = 0
C[30][5] = 0
C[30][6] = 0
C[30][7] = 0
C[30][8] = 0
C[30][9] = 0
C[30][10] = 0
C[30][11] = 0
C[30][12] = 0
C[30][13] = 0
C[30][14] = 0
C[30][15] = 0
C[30][16] = 0
C[30][17] = 0
C[30][18] = 0
C[30][19] = 0
C[30][20] = 0
C[30][21] = 0
C[30][22] = 0
C[30][23] = 0
C[30][24] = 0
C[30][25] = 0
C[30][26] = 0
C[30][27] = 0
C[30][28] = 0
C[30][29] = 0
C[30][30] = 0
C[30][31] = 0
C[30][32] = 0
C[30][33] = 0
C[30][34] = 0
C[30][35] = 0
C[30][36] = 0
C[30][37] = 0
C[30][38] = 0
C[30][39] = 0
C[30][40] = 0
C[30][41] = 0
C[30][42] = 0
C[30][43] = 0
C[30][44] = 0
C[30][45] = 0
C[30][46] = 0
C[30][47] = 0
C[30][48] = 0
C[30][49] = 0
C[30][50] = 0
C[30][51] = 0
C[30][52] = 0
C[30][53] = 0
C[30][54] = 0
C[30][55] = 0
C[30][56] = 0
C[30][57] = 0
C[30][58] = 0
C[30][59] = 0
C[30][60] = 0
C[30][61] = 0
C[30][62] = 0
C[30][63] = 0
C[30][64] = 0
C[30][65] = 0
C[31][0] = 0
C[31][1] = 0
C[31][2] = 0
C[31][3] = 0
C[31][4] = 0
C[31][5] = 0
C[31][6] = 0
C[31][7] = 0
C[31][8] = 0
C[31][9] = 0
C[31][10] = 0
C[31][11] = 0
C[31][12] = 0
C[31][13] = 0
C[31][14] = 0
C[31][15] = 0
C[31][16] = 0
C[31][17] = 0
C[31][18] = 0
C[31][19] = 0
C[31][20] = 0
C[31][21] = 0
C[31][22] = 0
C[31][23] = 0
C[31][24] = 0
C[31][25] = 0
C[31][26] = 0
C[31][27] = 0
C[31][28] = 0
C[31][29] = 0
C[31][30] = 0
C[31][31] = 0
C[31][32] = 0
C[31][33] = 0
C[31][34] = 0
C[31][35] = 0
C[31][36] = 0
C[31][37] = 0
C[31][38] = 0
C[31][39] = 0
C[31][40] = 0
C[31][41] = 0
C[31][42] = 0
C[31][43] = 0
C[31][44] = 0
C[31][45] = 0
C[31][46] = 0
C[31][47] = 0
C[31][48] = 0
C[31][49] = 0
C[31][50] = 0
C[31][51] = 0
C[31][52] = 0
C[31][53] = 0
C[31][54] = 0
C[31][55] = 0
C[31][56] = 0
C[31][57] = 0
C[31][58] = 0
C[31][59] = 0
C[31][60] = 0
C[31][61] = 0
C[31][62] = 0
C[31][63] = 0
C[31][64] = 0
C[31][65] = 0
C[32][0] = 0
C[32][1] = 0
C[32][2] = 0
C[32][3] = 0
C[32][4] = 0
C[32][5] = 0
C[32][6] = 0
C[32][7] = 0
C[32][8] = 0
C[32][9] = 0
C[32][10] = 0
C[32][11] = 0
C[32][12] = 0
C[32][13] = 0
C[32][14] = 0
C[32][15] = 0
C[32][16] = 0
C[32][17] = 0
C[32][18] = 0
C[32][19] = 0
C[32][20] = 0
C[32][21] = 0
C[32][22] = 0
C[32][23] = 0
C[32][24] = 0
C[32][25] = 0
C[32][26] = 0
C[32][27] = 0
C[32][28] = 0
C[32][29] = 0
C[32][30] = 0
C[32][31] = 0
C[32][32] = 0
C[32][33] = 0
C[32][34] = 0
C[32][35] = 0
C[32][36] = 0
C[32][37] = 0
C[32][38] = 0
C[32][39] = 0
C[32][40] = 0
C[32][41] = 0
C[32][42] = 0
C[32][43] = 0
C[32][44] = 0
C[32][45] = 0
C[32][46] = 0
C[32][47] = 0
C[32][48] = 0
C[32][49] = 0
C[32][50] = 0
C[32][51] = 0
C[32][52] = 0
C[32][53] = 0
C[32][54] = 0
C[32][55] = 0
C[32][56] = 0
C[32][57] = 0
C[32][58] = 0
C[32][59] = 0
C[32][60] = 0
C[32][61] = 0
C[32][62] = 0
C[32][63] = 0
C[32][64] = 0
C[32][65] = 0
C[33][0] = 0
C[33][1] = 0
C[33][2] = 0
C[33][3] = 0
C[33][4] = 0
C[33][5] = 0
C[33][6] = 0
C[33][7] = 0
C[33][8] = 0
C[33][9] = 0
C[33][10] = 0
C[33][11] = 0
C[33][12] = 0
C[33][13] = 0
C[33][14] = 0
C[33][15] = 0
C[33][16] = 0
C[33][17] = 0
C[33][18] = 0
C[33][19] = 0
C[33][20] = 0
C[33][21] = 0
C[33][22] = 0
C[33][23] = 0
C[33][24] = 0
C[33][25] = 0
C[33][26] = 0
C[33][27] = 0
C[33][28] = 0
C[33][29] = 0
C[33][30] = 0
C[33][31] = 0
C[33][32] = 0
C[33][33] = 0
C[33][34] = 0
C[33][35] = 0
C[33][36] = 0
C[33][37] = 0
C[33][38] = 0
C[33][39] = 0
C[33][40] = 0
C[33][41] = 0
C[33][42] = 0
C[33][43] = 0
C[33][44] = 0
C[33][45] = 0
C[33][46] = 0
C[33][47] = 0
C[33][48] = 0
C[33][49] = 0
C[33][50] = 0
C[33][51] = 0
C[33][52] = 0
C[33][53] = 0
C[33][54] = 0
C[33][55] = 0
C[33][56] = 0
C[33][57] = 0
C[33][58] = 0
C[33][59] = 0
C[33][60] = 0
C[33][61] = 0
C[33][62] = 0
C[33][63] = 0
C[33][64] = 0
C[33][65] = 0
C[34][0] = 0
C[34][1] = 0
C[34][2] = 0
C[34][3] = 0
C[34][4] = 0
C[34][5] = 0
C[34][6] = 0
C[34][7] = 0
C[34][8] = 0
C[34][9] = 0
C[34][10] = 0
C[34][11] = 0
C[34][12] = 0
C[34][13] = 0
C[34][14] = 0
C[34][15] = 0
C[34][16] = 0
C[34][17] = 0
C[34][18] = 0
C[34][19] = 0
C[34][20] = 0
C[34][21] = 0
C[34][22] = 0
C[34][23] = 0
C[34][24] = 0
C[34][25] = 0
C[34][26] = 0
C[34][27] = 0
C[34][28] = 0
C[34][29] = 0
C[34][30] = 0
C[34][31] = 0
C[34][32] = 0
C[34][33] = 0
C[34][34] = 0
C[34][35] = 0
C[34][36] = 0
C[34][37] = 0
C[34][38] = 0
C[34][39] = 0
C[34][40] = 0
C[34][41] = 0
C[34][42] = 0
C[34][43] = 0
C[34][44] = 0
C[34][45] = 0
C[34][46] = 0
C[34][47] = 0
C[34][48] = 0
C[34][49] = 0
C[34][50] = 0
C[34][51] = 0
C[34][52] = 0
C[34][53] = 0
C[34][54] = 0
C[34][55] = 0
C[34][56] = 0
C[34][57] = 0
C[34][58] = 0
C[34][59] = 0
C[34][60] = 0
C[34][61] = 0
C[34][62] = 0
C[34][63] = 0
C[34][64] = 0
C[34][65] = 0
