warn: Base 10 memory/cache size 3GB will be cast to base 2 size 3GiB.
warn: Base 10 memory/cache size 3GB will be cast to base 2 size 3GiB.
warn: Base 10 memory/cache size 16kB will be cast to base 2 size 16KiB.
warn: Base 10 memory/cache size 16kB will be cast to base 2 size 16KiB.
warn: Base 10 memory/cache size 256kB will be cast to base 2 size 256KiB.
Global frequency set at 1000000000000 ticks per second
src/mem/dram_interface.cc:690: warn: DRAM device capacity (16384 Mbytes) does not match the address range assigned (4096 Mbytes)
src/mem/dram_interface.cc:690: warn: DRAM device capacity (32768 Mbytes) does not match the address range assigned (4096 Mbytes)
      0: board.pim.mem_ctrl.dram: Initialized PIMInterface with CRF entries 32, GRF entries 16, SRF entries 16, SIMD width 16, PIM range start 0xc4000000
src/base/statistics.hh:279: warn: One of the stats is a legacy stat. Legacy stat is a stat that does not belong to any statistics::Group. Legacy stat is deprecated.
board.remote_gdb: Listening for connections on port 7000
gem5 Simulator System.  https://www.gem5.org
gem5 is copyrighted software; use the --copyright option for details.

gem5 version 25.1.0.0
gem5 compiled Feb 20 2026 15:09:23
gem5 started Feb 20 2026 16:51:47
gem5 executing on artecslab011, pid 621765
command line: ../../../gem5-pim/build/X86/gem5.opt --debug-flags=PIM add_matrix.py

src/sim/syscall_emul.cc:86: warn: ignoring syscall set_robust_list(...)
src/sim/syscall_emul.cc:86: warn: ignoring syscall rseq(...)
src/sim/mem_state.cc:443: info: Increasing stack size by one page.
src/sim/syscall_emul.hh:1127: warn: readlink() called on '/proc/self/exe' may yield unexpected results in various settings.
      Returning '/homelocal/antoma19_local/u/tfm/pim-resources/binaries/pim/add_matrix'
src/sim/syscall_emul.cc:86: warn: ignoring syscall mprotect(...)
Exit event triggered - mapping memory region in the simulated process
Mapped memory region at VA 0x10000000 to PA 0xC4000000
Mapped memory region at VA 0x20000000 to PA 0xD0000000
255324000: board.pim.mem_ctrl.dram: PIMInterface::access called with addr 0xd0002000, pim_mode=0
255324000: board.pim.mem_ctrl.dram: Normal DRAM access at address 0xd0002000
255360000: board.pim.mem_ctrl.dram: PIMInterface::access called with addr 0xd0002008, pim_mode=0
255360000: board.pim.mem_ctrl.dram: Normal DRAM access at address 0xd0002008
255397000: board.pim.mem_ctrl.dram: PIMInterface::access called with addr 0xd0002000, pim_mode=0
255397000: board.pim.mem_ctrl.dram: Normal DRAM access at address 0xd0002000
255433000: board.pim.mem_ctrl.dram: PIMInterface::access called with addr 0xd0002008, pim_mode=0
255433000: board.pim.mem_ctrl.dram: Normal DRAM access at address 0xd0002008
Mapped memory region at VA 0x30000000 to PA 0xD1000000
255715000: board.pim.mem_ctrl.dram: PIMInterface::access called with addr 0xd1000000, pim_mode=0
255715000: board.pim.mem_ctrl.dram: Normal DRAM access at address 0xd1000000
255751000: board.pim.mem_ctrl.dram: PIMInterface::access called with addr 0xd1000008, pim_mode=0
255751000: board.pim.mem_ctrl.dram: Normal DRAM access at address 0xd1000008
255788000: board.pim.mem_ctrl.dram: PIMInterface::access called with addr 0xd1000000, pim_mode=0
255788000: board.pim.mem_ctrl.dram: Normal DRAM access at address 0xd1000000
255824000: board.pim.mem_ctrl.dram: PIMInterface::access called with addr 0xd1000008, pim_mode=0
255824000: board.pim.mem_ctrl.dram: Normal DRAM access at address 0xd1000008
Mapped memory region at VA 0x40000000 to PA 0xD2000000
256044000: board.pim.mem_ctrl.dram: PIMInterface::access called with addr 0xd2000000, pim_mode=0
256044000: board.pim.mem_ctrl.dram: Normal DRAM access at address 0xd2000000
256080000: board.pim.mem_ctrl.dram: PIMInterface::access called with addr 0xd2000008, pim_mode=0
256080000: board.pim.mem_ctrl.dram: Normal DRAM access at address 0xd2000008
256117000: board.pim.mem_ctrl.dram: PIMInterface::access called with addr 0xd2000000, pim_mode=0
256117000: board.pim.mem_ctrl.dram: Normal DRAM access at address 0xd2000000
256153000: board.pim.mem_ctrl.dram: PIMInterface::access called with addr 0xd2000008, pim_mode=0
256153000: board.pim.mem_ctrl.dram: Normal DRAM access at address 0xd2000008
256374000: board.pim.mem_ctrl.dram: PIMInterface::access called with addr 0xd0002000, pim_mode=0
256374000: board.pim.mem_ctrl.dram: Normal DRAM access at address 0xd0002000
256435000: board.pim.mem_ctrl.dram: PIMInterface::access called with addr 0xd1000000, pim_mode=0
256435000: board.pim.mem_ctrl.dram: Normal DRAM access at address 0xd1000000
256506000: board.pim.mem_ctrl.dram: PIMInterface::access called with addr 0xd0002002, pim_mode=0
256506000: board.pim.mem_ctrl.dram: Normal DRAM access at address 0xd0002002
256567000: board.pim.mem_ctrl.dram: PIMInterface::access called with addr 0xd1000002, pim_mode=0
256567000: board.pim.mem_ctrl.dram: Normal DRAM access at address 0xd1000002
256638000: board.pim.mem_ctrl.dram: PIMInterface::access called with addr 0xd0002004, pim_mode=0
256638000: board.pim.mem_ctrl.dram: Normal DRAM access at address 0xd0002004
256699000: board.pim.mem_ctrl.dram: PIMInterface::access called with addr 0xd1000004, pim_mode=0
256699000: board.pim.mem_ctrl.dram: Normal DRAM access at address 0xd1000004
256770000: board.pim.mem_ctrl.dram: PIMInterface::access called with addr 0xd0002006, pim_mode=0
256770000: board.pim.mem_ctrl.dram: Normal DRAM access at address 0xd0002006
256831000: board.pim.mem_ctrl.dram: PIMInterface::access called with addr 0xd1000006, pim_mode=0
256831000: board.pim.mem_ctrl.dram: Normal DRAM access at address 0xd1000006
256902000: board.pim.mem_ctrl.dram: PIMInterface::access called with addr 0xd0002008, pim_mode=0
256902000: board.pim.mem_ctrl.dram: Normal DRAM access at address 0xd0002008
256963000: board.pim.mem_ctrl.dram: PIMInterface::access called with addr 0xd1000008, pim_mode=0
256963000: board.pim.mem_ctrl.dram: Normal DRAM access at address 0xd1000008
257034000: board.pim.mem_ctrl.dram: PIMInterface::access called with addr 0xd000200a, pim_mode=0
257034000: board.pim.mem_ctrl.dram: Normal DRAM access at address 0xd000200a
257095000: board.pim.mem_ctrl.dram: PIMInterface::access called with addr 0xd100000a, pim_mode=0
257095000: board.pim.mem_ctrl.dram: Normal DRAM access at address 0xd100000a
257166000: board.pim.mem_ctrl.dram: PIMInterface::access called with addr 0xd000200c, pim_mode=0
257166000: board.pim.mem_ctrl.dram: Normal DRAM access at address 0xd000200c
257227000: board.pim.mem_ctrl.dram: PIMInterface::access called with addr 0xd100000c, pim_mode=0
257227000: board.pim.mem_ctrl.dram: Normal DRAM access at address 0xd100000c
257298000: board.pim.mem_ctrl.dram: PIMInterface::access called with addr 0xd000200e, pim_mode=0
257298000: board.pim.mem_ctrl.dram: Normal DRAM access at address 0xd000200e
257359000: board.pim.mem_ctrl.dram: PIMInterface::access called with addr 0xd100000e, pim_mode=0
257359000: board.pim.mem_ctrl.dram: Normal DRAM access at address 0xd100000e
257430000: board.pim.mem_ctrl.dram: PIMInterface::access called with addr 0xd0002010, pim_mode=0
257430000: board.pim.mem_ctrl.dram: Normal DRAM access at address 0xd0002010
257491000: board.pim.mem_ctrl.dram: PIMInterface::access called with addr 0xd1000010, pim_mode=0
257491000: board.pim.mem_ctrl.dram: Normal DRAM access at address 0xd1000010
257562000: board.pim.mem_ctrl.dram: PIMInterface::access called with addr 0xd0002012, pim_mode=0
257562000: board.pim.mem_ctrl.dram: Normal DRAM access at address 0xd0002012
257623000: board.pim.mem_ctrl.dram: PIMInterface::access called with addr 0xd1000012, pim_mode=0
257623000: board.pim.mem_ctrl.dram: Normal DRAM access at address 0xd1000012
257694000: board.pim.mem_ctrl.dram: PIMInterface::access called with addr 0xd0002014, pim_mode=0
257694000: board.pim.mem_ctrl.dram: Normal DRAM access at address 0xd0002014
257755000: board.pim.mem_ctrl.dram: PIMInterface::access called with addr 0xd1000014, pim_mode=0
257755000: board.pim.mem_ctrl.dram: Normal DRAM access at address 0xd1000014
257826000: board.pim.mem_ctrl.dram: PIMInterface::access called with addr 0xd0002016, pim_mode=0
257826000: board.pim.mem_ctrl.dram: Normal DRAM access at address 0xd0002016
257887000: board.pim.mem_ctrl.dram: PIMInterface::access called with addr 0xd1000016, pim_mode=0
257887000: board.pim.mem_ctrl.dram: Normal DRAM access at address 0xd1000016
257958000: board.pim.mem_ctrl.dram: PIMInterface::access called with addr 0xd0002018, pim_mode=0
257958000: board.pim.mem_ctrl.dram: Normal DRAM access at address 0xd0002018
258019000: board.pim.mem_ctrl.dram: PIMInterface::access called with addr 0xd1000018, pim_mode=0
258019000: board.pim.mem_ctrl.dram: Normal DRAM access at address 0xd1000018
258090000: board.pim.mem_ctrl.dram: PIMInterface::access called with addr 0xd000201a, pim_mode=0
258090000: board.pim.mem_ctrl.dram: Normal DRAM access at address 0xd000201a
258151000: board.pim.mem_ctrl.dram: PIMInterface::access called with addr 0xd100001a, pim_mode=0
258151000: board.pim.mem_ctrl.dram: Normal DRAM access at address 0xd100001a
258222000: board.pim.mem_ctrl.dram: PIMInterface::access called with addr 0xd000201c, pim_mode=0
258222000: board.pim.mem_ctrl.dram: Normal DRAM access at address 0xd000201c
258283000: board.pim.mem_ctrl.dram: PIMInterface::access called with addr 0xd100001c, pim_mode=0
258283000: board.pim.mem_ctrl.dram: Normal DRAM access at address 0xd100001c
258354000: board.pim.mem_ctrl.dram: PIMInterface::access called with addr 0xd000201e, pim_mode=0
258354000: board.pim.mem_ctrl.dram: Normal DRAM access at address 0xd000201e
258415000: board.pim.mem_ctrl.dram: PIMInterface::access called with addr 0xd100001e, pim_mode=0
258415000: board.pim.mem_ctrl.dram: Normal DRAM access at address 0xd100001e
258486000: board.pim.mem_ctrl.dram: PIMInterface::access called with addr 0xd0002020, pim_mode=0
258486000: board.pim.mem_ctrl.dram: Normal DRAM access at address 0xd0002020
258547000: board.pim.mem_ctrl.dram: PIMInterface::access called with addr 0xd1000020, pim_mode=0
258547000: board.pim.mem_ctrl.dram: Normal DRAM access at address 0xd1000020
258618000: board.pim.mem_ctrl.dram: PIMInterface::access called with addr 0xd0002022, pim_mode=0
258618000: board.pim.mem_ctrl.dram: Normal DRAM access at address 0xd0002022
258679000: board.pim.mem_ctrl.dram: PIMInterface::access called with addr 0xd1000022, pim_mode=0
258679000: board.pim.mem_ctrl.dram: Normal DRAM access at address 0xd1000022
258750000: board.pim.mem_ctrl.dram: PIMInterface::access called with addr 0xd0002024, pim_mode=0
258750000: board.pim.mem_ctrl.dram: Normal DRAM access at address 0xd0002024
258811000: board.pim.mem_ctrl.dram: PIMInterface::access called with addr 0xd1000024, pim_mode=0
258811000: board.pim.mem_ctrl.dram: Normal DRAM access at address 0xd1000024
258882000: board.pim.mem_ctrl.dram: PIMInterface::access called with addr 0xd0002026, pim_mode=0
258882000: board.pim.mem_ctrl.dram: Normal DRAM access at address 0xd0002026
258943000: board.pim.mem_ctrl.dram: PIMInterface::access called with addr 0xd1000026, pim_mode=0
258943000: board.pim.mem_ctrl.dram: Normal DRAM access at address 0xd1000026
259014000: board.pim.mem_ctrl.dram: PIMInterface::access called with addr 0xd0002028, pim_mode=0
259014000: board.pim.mem_ctrl.dram: Normal DRAM access at address 0xd0002028
259075000: board.pim.mem_ctrl.dram: PIMInterface::access called with addr 0xd1000028, pim_mode=0
259075000: board.pim.mem_ctrl.dram: Normal DRAM access at address 0xd1000028
259146000: board.pim.mem_ctrl.dram: PIMInterface::access called with addr 0xd000202a, pim_mode=0
259146000: board.pim.mem_ctrl.dram: Normal DRAM access at address 0xd000202a
259207000: board.pim.mem_ctrl.dram: PIMInterface::access called with addr 0xd100002a, pim_mode=0
259207000: board.pim.mem_ctrl.dram: Normal DRAM access at address 0xd100002a
259278000: board.pim.mem_ctrl.dram: PIMInterface::access called with addr 0xd000202c, pim_mode=0
259278000: board.pim.mem_ctrl.dram: Normal DRAM access at address 0xd000202c
259339000: board.pim.mem_ctrl.dram: PIMInterface::access called with addr 0xd100002c, pim_mode=0
259339000: board.pim.mem_ctrl.dram: Normal DRAM access at address 0xd100002c
259410000: board.pim.mem_ctrl.dram: PIMInterface::access called with addr 0xd000202e, pim_mode=0
259410000: board.pim.mem_ctrl.dram: Normal DRAM access at address 0xd000202e
259471000: board.pim.mem_ctrl.dram: PIMInterface::access called with addr 0xd100002e, pim_mode=0
259471000: board.pim.mem_ctrl.dram: Normal DRAM access at address 0xd100002e
259542000: board.pim.mem_ctrl.dram: PIMInterface::access called with addr 0xd0002030, pim_mode=0
259542000: board.pim.mem_ctrl.dram: Normal DRAM access at address 0xd0002030
259603000: board.pim.mem_ctrl.dram: PIMInterface::access called with addr 0xd1000030, pim_mode=0
259603000: board.pim.mem_ctrl.dram: Normal DRAM access at address 0xd1000030
259674000: board.pim.mem_ctrl.dram: PIMInterface::access called with addr 0xd0002032, pim_mode=0
259674000: board.pim.mem_ctrl.dram: Normal DRAM access at address 0xd0002032
259735000: board.pim.mem_ctrl.dram: PIMInterface::access called with addr 0xd1000032, pim_mode=0
259735000: board.pim.mem_ctrl.dram: Normal DRAM access at address 0xd1000032
259806000: board.pim.mem_ctrl.dram: PIMInterface::access called with addr 0xd0002034, pim_mode=0
259806000: board.pim.mem_ctrl.dram: Normal DRAM access at address 0xd0002034
259867000: board.pim.mem_ctrl.dram: PIMInterface::access called with addr 0xd1000034, pim_mode=0
259867000: board.pim.mem_ctrl.dram: Normal DRAM access at address 0xd1000034
259938000: board.pim.mem_ctrl.dram: PIMInterface::access called with addr 0xd0002036, pim_mode=0
259938000: board.pim.mem_ctrl.dram: Normal DRAM access at address 0xd0002036
259999000: board.pim.mem_ctrl.dram: PIMInterface::access called with addr 0xd1000036, pim_mode=0
259999000: board.pim.mem_ctrl.dram: Normal DRAM access at address 0xd1000036
260070000: board.pim.mem_ctrl.dram: PIMInterface::access called with addr 0xd0002038, pim_mode=0
260070000: board.pim.mem_ctrl.dram: Normal DRAM access at address 0xd0002038
260131000: board.pim.mem_ctrl.dram: PIMInterface::access called with addr 0xd1000038, pim_mode=0
260131000: board.pim.mem_ctrl.dram: Normal DRAM access at address 0xd1000038
260202000: board.pim.mem_ctrl.dram: PIMInterface::access called with addr 0xd000203a, pim_mode=0
260202000: board.pim.mem_ctrl.dram: Normal DRAM access at address 0xd000203a
260263000: board.pim.mem_ctrl.dram: PIMInterface::access called with addr 0xd100003a, pim_mode=0
260263000: board.pim.mem_ctrl.dram: Normal DRAM access at address 0xd100003a
260334000: board.pim.mem_ctrl.dram: PIMInterface::access called with addr 0xd000203c, pim_mode=0
260334000: board.pim.mem_ctrl.dram: Normal DRAM access at address 0xd000203c
260395000: board.pim.mem_ctrl.dram: PIMInterface::access called with addr 0xd100003c, pim_mode=0
260395000: board.pim.mem_ctrl.dram: Normal DRAM access at address 0xd100003c
260466000: board.pim.mem_ctrl.dram: PIMInterface::access called with addr 0xd000203e, pim_mode=0
260466000: board.pim.mem_ctrl.dram: Normal DRAM access at address 0xd000203e
260527000: board.pim.mem_ctrl.dram: PIMInterface::access called with addr 0xd100003e, pim_mode=0
260527000: board.pim.mem_ctrl.dram: Normal DRAM access at address 0xd100003e
260598000: board.pim.mem_ctrl.dram: PIMInterface::access called with addr 0xd0002040, pim_mode=0
260598000: board.pim.mem_ctrl.dram: Normal DRAM access at address 0xd0002040
260659000: board.pim.mem_ctrl.dram: PIMInterface::access called with addr 0xd1000040, pim_mode=0
260659000: board.pim.mem_ctrl.dram: Normal DRAM access at address 0xd1000040
260730000: board.pim.mem_ctrl.dram: PIMInterface::access called with addr 0xd0002042, pim_mode=0
260730000: board.pim.mem_ctrl.dram: Normal DRAM access at address 0xd0002042
260791000: board.pim.mem_ctrl.dram: PIMInterface::access called with addr 0xd1000042, pim_mode=0
260791000: board.pim.mem_ctrl.dram: Normal DRAM access at address 0xd1000042
260862000: board.pim.mem_ctrl.dram: PIMInterface::access called with addr 0xd0002044, pim_mode=0
260862000: board.pim.mem_ctrl.dram: Normal DRAM access at address 0xd0002044
260923000: board.pim.mem_ctrl.dram: PIMInterface::access called with addr 0xd1000044, pim_mode=0
260923000: board.pim.mem_ctrl.dram: Normal DRAM access at address 0xd1000044
260994000: board.pim.mem_ctrl.dram: PIMInterface::access called with addr 0xd0002046, pim_mode=0
260994000: board.pim.mem_ctrl.dram: Normal DRAM access at address 0xd0002046
261055000: board.pim.mem_ctrl.dram: PIMInterface::access called with addr 0xd1000046, pim_mode=0
261055000: board.pim.mem_ctrl.dram: Normal DRAM access at address 0xd1000046
261126000: board.pim.mem_ctrl.dram: PIMInterface::access called with addr 0xd0002048, pim_mode=0
261126000: board.pim.mem_ctrl.dram: Normal DRAM access at address 0xd0002048
261187000: board.pim.mem_ctrl.dram: PIMInterface::access called with addr 0xd1000048, pim_mode=0
261187000: board.pim.mem_ctrl.dram: Normal DRAM access at address 0xd1000048
261258000: board.pim.mem_ctrl.dram: PIMInterface::access called with addr 0xd000204a, pim_mode=0
261258000: board.pim.mem_ctrl.dram: Normal DRAM access at address 0xd000204a
261319000: board.pim.mem_ctrl.dram: PIMInterface::access called with addr 0xd100004a, pim_mode=0
261319000: board.pim.mem_ctrl.dram: Normal DRAM access at address 0xd100004a
261390000: board.pim.mem_ctrl.dram: PIMInterface::access called with addr 0xd000204c, pim_mode=0
261390000: board.pim.mem_ctrl.dram: Normal DRAM access at address 0xd000204c
261451000: board.pim.mem_ctrl.dram: PIMInterface::access called with addr 0xd100004c, pim_mode=0
261451000: board.pim.mem_ctrl.dram: Normal DRAM access at address 0xd100004c
261522000: board.pim.mem_ctrl.dram: PIMInterface::access called with addr 0xd000204e, pim_mode=0
261522000: board.pim.mem_ctrl.dram: Normal DRAM access at address 0xd000204e
261583000: board.pim.mem_ctrl.dram: PIMInterface::access called with addr 0xd100004e, pim_mode=0
261583000: board.pim.mem_ctrl.dram: Normal DRAM access at address 0xd100004e
261654000: board.pim.mem_ctrl.dram: PIMInterface::access called with addr 0xd0002050, pim_mode=0
261654000: board.pim.mem_ctrl.dram: Normal DRAM access at address 0xd0002050
261715000: board.pim.mem_ctrl.dram: PIMInterface::access called with addr 0xd1000050, pim_mode=0
261715000: board.pim.mem_ctrl.dram: Normal DRAM access at address 0xd1000050
261786000: board.pim.mem_ctrl.dram: PIMInterface::access called with addr 0xd0002052, pim_mode=0
261786000: board.pim.mem_ctrl.dram: Normal DRAM access at address 0xd0002052
261847000: board.pim.mem_ctrl.dram: PIMInterface::access called with addr 0xd1000052, pim_mode=0
261847000: board.pim.mem_ctrl.dram: Normal DRAM access at address 0xd1000052
261918000: board.pim.mem_ctrl.dram: PIMInterface::access called with addr 0xd0002054, pim_mode=0
261918000: board.pim.mem_ctrl.dram: Normal DRAM access at address 0xd0002054
261979000: board.pim.mem_ctrl.dram: PIMInterface::access called with addr 0xd1000054, pim_mode=0
261979000: board.pim.mem_ctrl.dram: Normal DRAM access at address 0xd1000054
262050000: board.pim.mem_ctrl.dram: PIMInterface::access called with addr 0xd0002056, pim_mode=0
262050000: board.pim.mem_ctrl.dram: Normal DRAM access at address 0xd0002056
262111000: board.pim.mem_ctrl.dram: PIMInterface::access called with addr 0xd1000056, pim_mode=0
262111000: board.pim.mem_ctrl.dram: Normal DRAM access at address 0xd1000056
262182000: board.pim.mem_ctrl.dram: PIMInterface::access called with addr 0xd0002058, pim_mode=0
262182000: board.pim.mem_ctrl.dram: Normal DRAM access at address 0xd0002058
262243000: board.pim.mem_ctrl.dram: PIMInterface::access called with addr 0xd1000058, pim_mode=0
262243000: board.pim.mem_ctrl.dram: Normal DRAM access at address 0xd1000058
262314000: board.pim.mem_ctrl.dram: PIMInterface::access called with addr 0xd000205a, pim_mode=0
262314000: board.pim.mem_ctrl.dram: Normal DRAM access at address 0xd000205a
262375000: board.pim.mem_ctrl.dram: PIMInterface::access called with addr 0xd100005a, pim_mode=0
262375000: board.pim.mem_ctrl.dram: Normal DRAM access at address 0xd100005a
262446000: board.pim.mem_ctrl.dram: PIMInterface::access called with addr 0xd000205c, pim_mode=0
262446000: board.pim.mem_ctrl.dram: Normal DRAM access at address 0xd000205c
262507000: board.pim.mem_ctrl.dram: PIMInterface::access called with addr 0xd100005c, pim_mode=0
262507000: board.pim.mem_ctrl.dram: Normal DRAM access at address 0xd100005c
262578000: board.pim.mem_ctrl.dram: PIMInterface::access called with addr 0xd000205e, pim_mode=0
262578000: board.pim.mem_ctrl.dram: Normal DRAM access at address 0xd000205e
262639000: board.pim.mem_ctrl.dram: PIMInterface::access called with addr 0xd100005e, pim_mode=0
262639000: board.pim.mem_ctrl.dram: Normal DRAM access at address 0xd100005e
262710000: board.pim.mem_ctrl.dram: PIMInterface::access called with addr 0xd0002060, pim_mode=0
262710000: board.pim.mem_ctrl.dram: Normal DRAM access at address 0xd0002060
262771000: board.pim.mem_ctrl.dram: PIMInterface::access called with addr 0xd1000060, pim_mode=0
262771000: board.pim.mem_ctrl.dram: Normal DRAM access at address 0xd1000060
262842000: board.pim.mem_ctrl.dram: PIMInterface::access called with addr 0xd0002062, pim_mode=0
262842000: board.pim.mem_ctrl.dram: Normal DRAM access at address 0xd0002062
262903000: board.pim.mem_ctrl.dram: PIMInterface::access called with addr 0xd1000062, pim_mode=0
262903000: board.pim.mem_ctrl.dram: Normal DRAM access at address 0xd1000062
262974000: board.pim.mem_ctrl.dram: PIMInterface::access called with addr 0xd0002064, pim_mode=0
262974000: board.pim.mem_ctrl.dram: Normal DRAM access at address 0xd0002064
263035000: board.pim.mem_ctrl.dram: PIMInterface::access called with addr 0xd1000064, pim_mode=0
263035000: board.pim.mem_ctrl.dram: Normal DRAM access at address 0xd1000064
263106000: board.pim.mem_ctrl.dram: PIMInterface::access called with addr 0xd0002066, pim_mode=0
263106000: board.pim.mem_ctrl.dram: Normal DRAM access at address 0xd0002066
263167000: board.pim.mem_ctrl.dram: PIMInterface::access called with addr 0xd1000066, pim_mode=0
263167000: board.pim.mem_ctrl.dram: Normal DRAM access at address 0xd1000066
263238000: board.pim.mem_ctrl.dram: PIMInterface::access called with addr 0xd0002068, pim_mode=0
263238000: board.pim.mem_ctrl.dram: Normal DRAM access at address 0xd0002068
263299000: board.pim.mem_ctrl.dram: PIMInterface::access called with addr 0xd1000068, pim_mode=0
263299000: board.pim.mem_ctrl.dram: Normal DRAM access at address 0xd1000068
263370000: board.pim.mem_ctrl.dram: PIMInterface::access called with addr 0xd000206a, pim_mode=0
263370000: board.pim.mem_ctrl.dram: Normal DRAM access at address 0xd000206a
263431000: board.pim.mem_ctrl.dram: PIMInterface::access called with addr 0xd100006a, pim_mode=0
263431000: board.pim.mem_ctrl.dram: Normal DRAM access at address 0xd100006a
263502000: board.pim.mem_ctrl.dram: PIMInterface::access called with addr 0xd000206c, pim_mode=0
263502000: board.pim.mem_ctrl.dram: Normal DRAM access at address 0xd000206c
263563000: board.pim.mem_ctrl.dram: PIMInterface::access called with addr 0xd100006c, pim_mode=0
263563000: board.pim.mem_ctrl.dram: Normal DRAM access at address 0xd100006c
263634000: board.pim.mem_ctrl.dram: PIMInterface::access called with addr 0xd000206e, pim_mode=0
263634000: board.pim.mem_ctrl.dram: Normal DRAM access at address 0xd000206e
263695000: board.pim.mem_ctrl.dram: PIMInterface::access called with addr 0xd100006e, pim_mode=0
263695000: board.pim.mem_ctrl.dram: Normal DRAM access at address 0xd100006e
263766000: board.pim.mem_ctrl.dram: PIMInterface::access called with addr 0xd0002070, pim_mode=0
263766000: board.pim.mem_ctrl.dram: Normal DRAM access at address 0xd0002070
263827000: board.pim.mem_ctrl.dram: PIMInterface::access called with addr 0xd1000070, pim_mode=0
263827000: board.pim.mem_ctrl.dram: Normal DRAM access at address 0xd1000070
263898000: board.pim.mem_ctrl.dram: PIMInterface::access called with addr 0xd0002072, pim_mode=0
263898000: board.pim.mem_ctrl.dram: Normal DRAM access at address 0xd0002072
263959000: board.pim.mem_ctrl.dram: PIMInterface::access called with addr 0xd1000072, pim_mode=0
263959000: board.pim.mem_ctrl.dram: Normal DRAM access at address 0xd1000072
264030000: board.pim.mem_ctrl.dram: PIMInterface::access called with addr 0xd0002074, pim_mode=0
264030000: board.pim.mem_ctrl.dram: Normal DRAM access at address 0xd0002074
264091000: board.pim.mem_ctrl.dram: PIMInterface::access called with addr 0xd1000074, pim_mode=0
264091000: board.pim.mem_ctrl.dram: Normal DRAM access at address 0xd1000074
264162000: board.pim.mem_ctrl.dram: PIMInterface::access called with addr 0xd0002076, pim_mode=0
264162000: board.pim.mem_ctrl.dram: Normal DRAM access at address 0xd0002076
264223000: board.pim.mem_ctrl.dram: PIMInterface::access called with addr 0xd1000076, pim_mode=0
264223000: board.pim.mem_ctrl.dram: Normal DRAM access at address 0xd1000076
264294000: board.pim.mem_ctrl.dram: PIMInterface::access called with addr 0xd0002078, pim_mode=0
264294000: board.pim.mem_ctrl.dram: Normal DRAM access at address 0xd0002078
264355000: board.pim.mem_ctrl.dram: PIMInterface::access called with addr 0xd1000078, pim_mode=0
264355000: board.pim.mem_ctrl.dram: Normal DRAM access at address 0xd1000078
264426000: board.pim.mem_ctrl.dram: PIMInterface::access called with addr 0xd000207a, pim_mode=0
264426000: board.pim.mem_ctrl.dram: Normal DRAM access at address 0xd000207a
264487000: board.pim.mem_ctrl.dram: PIMInterface::access called with addr 0xd100007a, pim_mode=0
264487000: board.pim.mem_ctrl.dram: Normal DRAM access at address 0xd100007a
264558000: board.pim.mem_ctrl.dram: PIMInterface::access called with addr 0xd000207c, pim_mode=0
264558000: board.pim.mem_ctrl.dram: Normal DRAM access at address 0xd000207c
264619000: board.pim.mem_ctrl.dram: PIMInterface::access called with addr 0xd100007c, pim_mode=0
264619000: board.pim.mem_ctrl.dram: Normal DRAM access at address 0xd100007c
264690000: board.pim.mem_ctrl.dram: PIMInterface::access called with addr 0xd000207e, pim_mode=0
264690000: board.pim.mem_ctrl.dram: Normal DRAM access at address 0xd000207e
264751000: board.pim.mem_ctrl.dram: PIMInterface::access called with addr 0xd100007e, pim_mode=0
264751000: board.pim.mem_ctrl.dram: Normal DRAM access at address 0xd100007e
264822000: board.pim.mem_ctrl.dram: PIMInterface::access called with addr 0xd0002080, pim_mode=0
264822000: board.pim.mem_ctrl.dram: Normal DRAM access at address 0xd0002080
264883000: board.pim.mem_ctrl.dram: PIMInterface::access called with addr 0xd1000080, pim_mode=0
264883000: board.pim.mem_ctrl.dram: Normal DRAM access at address 0xd1000080
264954000: board.pim.mem_ctrl.dram: PIMInterface::access called with addr 0xd0002082, pim_mode=0
264954000: board.pim.mem_ctrl.dram: Normal DRAM access at address 0xd0002082
265015000: board.pim.mem_ctrl.dram: PIMInterface::access called with addr 0xd1000082, pim_mode=0
265015000: board.pim.mem_ctrl.dram: Normal DRAM access at address 0xd1000082
265104000: board.pim.mem_ctrl.dram: PIMInterface::access called with addr 0xd0002084, pim_mode=0
265104000: board.pim.mem_ctrl.dram: Normal DRAM access at address 0xd0002084
265165000: board.pim.mem_ctrl.dram: PIMInterface::access called with addr 0xd1000084, pim_mode=0
265165000: board.pim.mem_ctrl.dram: Normal DRAM access at address 0xd1000084
265236000: board.pim.mem_ctrl.dram: PIMInterface::access called with addr 0xd0002086, pim_mode=0
265236000: board.pim.mem_ctrl.dram: Normal DRAM access at address 0xd0002086
265297000: board.pim.mem_ctrl.dram: PIMInterface::access called with addr 0xd1000086, pim_mode=0
265297000: board.pim.mem_ctrl.dram: Normal DRAM access at address 0xd1000086
265368000: board.pim.mem_ctrl.dram: PIMInterface::access called with addr 0xd0002088, pim_mode=0
265368000: board.pim.mem_ctrl.dram: Normal DRAM access at address 0xd0002088
265429000: board.pim.mem_ctrl.dram: PIMInterface::access called with addr 0xd1000088, pim_mode=0
265429000: board.pim.mem_ctrl.dram: Normal DRAM access at address 0xd1000088
265500000: board.pim.mem_ctrl.dram: PIMInterface::access called with addr 0xd000208a, pim_mode=0
265500000: board.pim.mem_ctrl.dram: Normal DRAM access at address 0xd000208a
265561000: board.pim.mem_ctrl.dram: PIMInterface::access called with addr 0xd100008a, pim_mode=0
265561000: board.pim.mem_ctrl.dram: Normal DRAM access at address 0xd100008a
265632000: board.pim.mem_ctrl.dram: PIMInterface::access called with addr 0xd000208c, pim_mode=0
265632000: board.pim.mem_ctrl.dram: Normal DRAM access at address 0xd000208c
265693000: board.pim.mem_ctrl.dram: PIMInterface::access called with addr 0xd100008c, pim_mode=0
265693000: board.pim.mem_ctrl.dram: Normal DRAM access at address 0xd100008c
265764000: board.pim.mem_ctrl.dram: PIMInterface::access called with addr 0xd000208e, pim_mode=0
265764000: board.pim.mem_ctrl.dram: Normal DRAM access at address 0xd000208e
265825000: board.pim.mem_ctrl.dram: PIMInterface::access called with addr 0xd100008e, pim_mode=0
265825000: board.pim.mem_ctrl.dram: Normal DRAM access at address 0xd100008e
265896000: board.pim.mem_ctrl.dram: PIMInterface::access called with addr 0xd0002090, pim_mode=0
265896000: board.pim.mem_ctrl.dram: Normal DRAM access at address 0xd0002090
265957000: board.pim.mem_ctrl.dram: PIMInterface::access called with addr 0xd1000090, pim_mode=0
265957000: board.pim.mem_ctrl.dram: Normal DRAM access at address 0xd1000090
266028000: board.pim.mem_ctrl.dram: PIMInterface::access called with addr 0xd0002092, pim_mode=0
266028000: board.pim.mem_ctrl.dram: Normal DRAM access at address 0xd0002092
266089000: board.pim.mem_ctrl.dram: PIMInterface::access called with addr 0xd1000092, pim_mode=0
266089000: board.pim.mem_ctrl.dram: Normal DRAM access at address 0xd1000092
266160000: board.pim.mem_ctrl.dram: PIMInterface::access called with addr 0xd0002094, pim_mode=0
266160000: board.pim.mem_ctrl.dram: Normal DRAM access at address 0xd0002094
266221000: board.pim.mem_ctrl.dram: PIMInterface::access called with addr 0xd1000094, pim_mode=0
266221000: board.pim.mem_ctrl.dram: Normal DRAM access at address 0xd1000094
266292000: board.pim.mem_ctrl.dram: PIMInterface::access called with addr 0xd0002096, pim_mode=0
266292000: board.pim.mem_ctrl.dram: Normal DRAM access at address 0xd0002096
266353000: board.pim.mem_ctrl.dram: PIMInterface::access called with addr 0xd1000096, pim_mode=0
266353000: board.pim.mem_ctrl.dram: Normal DRAM access at address 0xd1000096
266424000: board.pim.mem_ctrl.dram: PIMInterface::access called with addr 0xd0002098, pim_mode=0
266424000: board.pim.mem_ctrl.dram: Normal DRAM access at address 0xd0002098
266485000: board.pim.mem_ctrl.dram: PIMInterface::access called with addr 0xd1000098, pim_mode=0
266485000: board.pim.mem_ctrl.dram: Normal DRAM access at address 0xd1000098
266556000: board.pim.mem_ctrl.dram: PIMInterface::access called with addr 0xd000209a, pim_mode=0
266556000: board.pim.mem_ctrl.dram: Normal DRAM access at address 0xd000209a
266617000: board.pim.mem_ctrl.dram: PIMInterface::access called with addr 0xd100009a, pim_mode=0
266617000: board.pim.mem_ctrl.dram: Normal DRAM access at address 0xd100009a
266688000: board.pim.mem_ctrl.dram: PIMInterface::access called with addr 0xd000209c, pim_mode=0
266688000: board.pim.mem_ctrl.dram: Normal DRAM access at address 0xd000209c
266749000: board.pim.mem_ctrl.dram: PIMInterface::access called with addr 0xd100009c, pim_mode=0
266749000: board.pim.mem_ctrl.dram: Normal DRAM access at address 0xd100009c
266820000: board.pim.mem_ctrl.dram: PIMInterface::access called with addr 0xd000209e, pim_mode=0
266820000: board.pim.mem_ctrl.dram: Normal DRAM access at address 0xd000209e
266881000: board.pim.mem_ctrl.dram: PIMInterface::access called with addr 0xd100009e, pim_mode=0
266881000: board.pim.mem_ctrl.dram: Normal DRAM access at address 0xd100009e
266952000: board.pim.mem_ctrl.dram: PIMInterface::access called with addr 0xd00020a0, pim_mode=0
266952000: board.pim.mem_ctrl.dram: Normal DRAM access at address 0xd00020a0
267013000: board.pim.mem_ctrl.dram: PIMInterface::access called with addr 0xd10000a0, pim_mode=0
267013000: board.pim.mem_ctrl.dram: Normal DRAM access at address 0xd10000a0
267084000: board.pim.mem_ctrl.dram: PIMInterface::access called with addr 0xd00020a2, pim_mode=0
267084000: board.pim.mem_ctrl.dram: Normal DRAM access at address 0xd00020a2
267145000: board.pim.mem_ctrl.dram: PIMInterface::access called with addr 0xd10000a2, pim_mode=0
267145000: board.pim.mem_ctrl.dram: Normal DRAM access at address 0xd10000a2
267216000: board.pim.mem_ctrl.dram: PIMInterface::access called with addr 0xd00020a4, pim_mode=0
267216000: board.pim.mem_ctrl.dram: Normal DRAM access at address 0xd00020a4
267277000: board.pim.mem_ctrl.dram: PIMInterface::access called with addr 0xd10000a4, pim_mode=0
267277000: board.pim.mem_ctrl.dram: Normal DRAM access at address 0xd10000a4
267348000: board.pim.mem_ctrl.dram: PIMInterface::access called with addr 0xd00020a6, pim_mode=0
267348000: board.pim.mem_ctrl.dram: Normal DRAM access at address 0xd00020a6
267409000: board.pim.mem_ctrl.dram: PIMInterface::access called with addr 0xd10000a6, pim_mode=0
267409000: board.pim.mem_ctrl.dram: Normal DRAM access at address 0xd10000a6
267480000: board.pim.mem_ctrl.dram: PIMInterface::access called with addr 0xd00020a8, pim_mode=0
267480000: board.pim.mem_ctrl.dram: Normal DRAM access at address 0xd00020a8
267541000: board.pim.mem_ctrl.dram: PIMInterface::access called with addr 0xd10000a8, pim_mode=0
267541000: board.pim.mem_ctrl.dram: Normal DRAM access at address 0xd10000a8
267612000: board.pim.mem_ctrl.dram: PIMInterface::access called with addr 0xd00020aa, pim_mode=0
267612000: board.pim.mem_ctrl.dram: Normal DRAM access at address 0xd00020aa
267673000: board.pim.mem_ctrl.dram: PIMInterface::access called with addr 0xd10000aa, pim_mode=0
267673000: board.pim.mem_ctrl.dram: Normal DRAM access at address 0xd10000aa
267744000: board.pim.mem_ctrl.dram: PIMInterface::access called with addr 0xd00020ac, pim_mode=0
267744000: board.pim.mem_ctrl.dram: Normal DRAM access at address 0xd00020ac
267805000: board.pim.mem_ctrl.dram: PIMInterface::access called with addr 0xd10000ac, pim_mode=0
267805000: board.pim.mem_ctrl.dram: Normal DRAM access at address 0xd10000ac
267876000: board.pim.mem_ctrl.dram: PIMInterface::access called with addr 0xd00020ae, pim_mode=0
267876000: board.pim.mem_ctrl.dram: Normal DRAM access at address 0xd00020ae
267937000: board.pim.mem_ctrl.dram: PIMInterface::access called with addr 0xd10000ae, pim_mode=0
267937000: board.pim.mem_ctrl.dram: Normal DRAM access at address 0xd10000ae
268008000: board.pim.mem_ctrl.dram: PIMInterface::access called with addr 0xd00020b0, pim_mode=0
268008000: board.pim.mem_ctrl.dram: Normal DRAM access at address 0xd00020b0
268069000: board.pim.mem_ctrl.dram: PIMInterface::access called with addr 0xd10000b0, pim_mode=0
268069000: board.pim.mem_ctrl.dram: Normal DRAM access at address 0xd10000b0
268140000: board.pim.mem_ctrl.dram: PIMInterface::access called with addr 0xd00020b2, pim_mode=0
268140000: board.pim.mem_ctrl.dram: Normal DRAM access at address 0xd00020b2
268201000: board.pim.mem_ctrl.dram: PIMInterface::access called with addr 0xd10000b2, pim_mode=0
268201000: board.pim.mem_ctrl.dram: Normal DRAM access at address 0xd10000b2
268272000: board.pim.mem_ctrl.dram: PIMInterface::access called with addr 0xd00020b4, pim_mode=0
268272000: board.pim.mem_ctrl.dram: Normal DRAM access at address 0xd00020b4
268333000: board.pim.mem_ctrl.dram: PIMInterface::access called with addr 0xd10000b4, pim_mode=0
268333000: board.pim.mem_ctrl.dram: Normal DRAM access at address 0xd10000b4
268404000: board.pim.mem_ctrl.dram: PIMInterface::access called with addr 0xd00020b6, pim_mode=0
268404000: board.pim.mem_ctrl.dram: Normal DRAM access at address 0xd00020b6
268465000: board.pim.mem_ctrl.dram: PIMInterface::access called with addr 0xd10000b6, pim_mode=0
268465000: board.pim.mem_ctrl.dram: Normal DRAM access at address 0xd10000b6
268536000: board.pim.mem_ctrl.dram: PIMInterface::access called with addr 0xd00020b8, pim_mode=0
268536000: board.pim.mem_ctrl.dram: Normal DRAM access at address 0xd00020b8
268597000: board.pim.mem_ctrl.dram: PIMInterface::access called with addr 0xd10000b8, pim_mode=0
268597000: board.pim.mem_ctrl.dram: Normal DRAM access at address 0xd10000b8
268668000: board.pim.mem_ctrl.dram: PIMInterface::access called with addr 0xd00020ba, pim_mode=0
268668000: board.pim.mem_ctrl.dram: Normal DRAM access at address 0xd00020ba
268729000: board.pim.mem_ctrl.dram: PIMInterface::access called with addr 0xd10000ba, pim_mode=0
268729000: board.pim.mem_ctrl.dram: Normal DRAM access at address 0xd10000ba
268800000: board.pim.mem_ctrl.dram: PIMInterface::access called with addr 0xd00020bc, pim_mode=0
268800000: board.pim.mem_ctrl.dram: Normal DRAM access at address 0xd00020bc
268861000: board.pim.mem_ctrl.dram: PIMInterface::access called with addr 0xd10000bc, pim_mode=0
268861000: board.pim.mem_ctrl.dram: Normal DRAM access at address 0xd10000bc
268932000: board.pim.mem_ctrl.dram: PIMInterface::access called with addr 0xd00020be, pim_mode=0
268932000: board.pim.mem_ctrl.dram: Normal DRAM access at address 0xd00020be
268993000: board.pim.mem_ctrl.dram: PIMInterface::access called with addr 0xd10000be, pim_mode=0
268993000: board.pim.mem_ctrl.dram: Normal DRAM access at address 0xd10000be
269064000: board.pim.mem_ctrl.dram: PIMInterface::access called with addr 0xd00020c0, pim_mode=0
269064000: board.pim.mem_ctrl.dram: Normal DRAM access at address 0xd00020c0
269125000: board.pim.mem_ctrl.dram: PIMInterface::access called with addr 0xd10000c0, pim_mode=0
269125000: board.pim.mem_ctrl.dram: Normal DRAM access at address 0xd10000c0
269196000: board.pim.mem_ctrl.dram: PIMInterface::access called with addr 0xd00020c2, pim_mode=0
269196000: board.pim.mem_ctrl.dram: Normal DRAM access at address 0xd00020c2
269257000: board.pim.mem_ctrl.dram: PIMInterface::access called with addr 0xd10000c2, pim_mode=0
269257000: board.pim.mem_ctrl.dram: Normal DRAM access at address 0xd10000c2
269328000: board.pim.mem_ctrl.dram: PIMInterface::access called with addr 0xd00020c4, pim_mode=0
269328000: board.pim.mem_ctrl.dram: Normal DRAM access at address 0xd00020c4
269389000: board.pim.mem_ctrl.dram: PIMInterface::access called with addr 0xd10000c4, pim_mode=0
269389000: board.pim.mem_ctrl.dram: Normal DRAM access at address 0xd10000c4
269460000: board.pim.mem_ctrl.dram: PIMInterface::access called with addr 0xd00020c6, pim_mode=0
269460000: board.pim.mem_ctrl.dram: Normal DRAM access at address 0xd00020c6
269521000: board.pim.mem_ctrl.dram: PIMInterface::access called with addr 0xd10000c6, pim_mode=0
269521000: board.pim.mem_ctrl.dram: Normal DRAM access at address 0xd10000c6
269592000: board.pim.mem_ctrl.dram: PIMInterface::access called with addr 0xd00020c8, pim_mode=0
269592000: board.pim.mem_ctrl.dram: Normal DRAM access at address 0xd00020c8
269653000: board.pim.mem_ctrl.dram: PIMInterface::access called with addr 0xd10000c8, pim_mode=0
269653000: board.pim.mem_ctrl.dram: Normal DRAM access at address 0xd10000c8
269724000: board.pim.mem_ctrl.dram: PIMInterface::access called with addr 0xd00020ca, pim_mode=0
269724000: board.pim.mem_ctrl.dram: Normal DRAM access at address 0xd00020ca
269785000: board.pim.mem_ctrl.dram: PIMInterface::access called with addr 0xd10000ca, pim_mode=0
269785000: board.pim.mem_ctrl.dram: Normal DRAM access at address 0xd10000ca
269856000: board.pim.mem_ctrl.dram: PIMInterface::access called with addr 0xd00020cc, pim_mode=0
269856000: board.pim.mem_ctrl.dram: Normal DRAM access at address 0xd00020cc
269917000: board.pim.mem_ctrl.dram: PIMInterface::access called with addr 0xd10000cc, pim_mode=0
269917000: board.pim.mem_ctrl.dram: Normal DRAM access at address 0xd10000cc
269988000: board.pim.mem_ctrl.dram: PIMInterface::access called with addr 0xd00020ce, pim_mode=0
269988000: board.pim.mem_ctrl.dram: Normal DRAM access at address 0xd00020ce
270049000: board.pim.mem_ctrl.dram: PIMInterface::access called with addr 0xd10000ce, pim_mode=0
270049000: board.pim.mem_ctrl.dram: Normal DRAM access at address 0xd10000ce
270120000: board.pim.mem_ctrl.dram: PIMInterface::access called with addr 0xd00020d0, pim_mode=0
270120000: board.pim.mem_ctrl.dram: Normal DRAM access at address 0xd00020d0
270181000: board.pim.mem_ctrl.dram: PIMInterface::access called with addr 0xd10000d0, pim_mode=0
270181000: board.pim.mem_ctrl.dram: Normal DRAM access at address 0xd10000d0
270252000: board.pim.mem_ctrl.dram: PIMInterface::access called with addr 0xd00020d2, pim_mode=0
270252000: board.pim.mem_ctrl.dram: Normal DRAM access at address 0xd00020d2
270313000: board.pim.mem_ctrl.dram: PIMInterface::access called with addr 0xd10000d2, pim_mode=0
270313000: board.pim.mem_ctrl.dram: Normal DRAM access at address 0xd10000d2
270384000: board.pim.mem_ctrl.dram: PIMInterface::access called with addr 0xd00020d4, pim_mode=0
270384000: board.pim.mem_ctrl.dram: Normal DRAM access at address 0xd00020d4
270445000: board.pim.mem_ctrl.dram: PIMInterface::access called with addr 0xd10000d4, pim_mode=0
270445000: board.pim.mem_ctrl.dram: Normal DRAM access at address 0xd10000d4
270516000: board.pim.mem_ctrl.dram: PIMInterface::access called with addr 0xd00020d6, pim_mode=0
270516000: board.pim.mem_ctrl.dram: Normal DRAM access at address 0xd00020d6
270577000: board.pim.mem_ctrl.dram: PIMInterface::access called with addr 0xd10000d6, pim_mode=0
270577000: board.pim.mem_ctrl.dram: Normal DRAM access at address 0xd10000d6
270648000: board.pim.mem_ctrl.dram: PIMInterface::access called with addr 0xd00020d8, pim_mode=0
270648000: board.pim.mem_ctrl.dram: Normal DRAM access at address 0xd00020d8
270709000: board.pim.mem_ctrl.dram: PIMInterface::access called with addr 0xd10000d8, pim_mode=0
270709000: board.pim.mem_ctrl.dram: Normal DRAM access at address 0xd10000d8
270780000: board.pim.mem_ctrl.dram: PIMInterface::access called with addr 0xd00020da, pim_mode=0
270780000: board.pim.mem_ctrl.dram: Normal DRAM access at address 0xd00020da
270841000: board.pim.mem_ctrl.dram: PIMInterface::access called with addr 0xd10000da, pim_mode=0
270841000: board.pim.mem_ctrl.dram: Normal DRAM access at address 0xd10000da
270912000: board.pim.mem_ctrl.dram: PIMInterface::access called with addr 0xd00020dc, pim_mode=0
270912000: board.pim.mem_ctrl.dram: Normal DRAM access at address 0xd00020dc
270973000: board.pim.mem_ctrl.dram: PIMInterface::access called with addr 0xd10000dc, pim_mode=0
270973000: board.pim.mem_ctrl.dram: Normal DRAM access at address 0xd10000dc
271044000: board.pim.mem_ctrl.dram: PIMInterface::access called with addr 0xd00020de, pim_mode=0
271044000: board.pim.mem_ctrl.dram: Normal DRAM access at address 0xd00020de
271105000: board.pim.mem_ctrl.dram: PIMInterface::access called with addr 0xd10000de, pim_mode=0
271105000: board.pim.mem_ctrl.dram: Normal DRAM access at address 0xd10000de
271176000: board.pim.mem_ctrl.dram: PIMInterface::access called with addr 0xd00020e0, pim_mode=0
271176000: board.pim.mem_ctrl.dram: Normal DRAM access at address 0xd00020e0
271237000: board.pim.mem_ctrl.dram: PIMInterface::access called with addr 0xd10000e0, pim_mode=0
271237000: board.pim.mem_ctrl.dram: Normal DRAM access at address 0xd10000e0
271308000: board.pim.mem_ctrl.dram: PIMInterface::access called with addr 0xd00020e2, pim_mode=0
271308000: board.pim.mem_ctrl.dram: Normal DRAM access at address 0xd00020e2
271369000: board.pim.mem_ctrl.dram: PIMInterface::access called with addr 0xd10000e2, pim_mode=0
271369000: board.pim.mem_ctrl.dram: Normal DRAM access at address 0xd10000e2
271440000: board.pim.mem_ctrl.dram: PIMInterface::access called with addr 0xd00020e4, pim_mode=0
271440000: board.pim.mem_ctrl.dram: Normal DRAM access at address 0xd00020e4
271501000: board.pim.mem_ctrl.dram: PIMInterface::access called with addr 0xd10000e4, pim_mode=0
271501000: board.pim.mem_ctrl.dram: Normal DRAM access at address 0xd10000e4
271572000: board.pim.mem_ctrl.dram: PIMInterface::access called with addr 0xd00020e6, pim_mode=0
271572000: board.pim.mem_ctrl.dram: Normal DRAM access at address 0xd00020e6
271633000: board.pim.mem_ctrl.dram: PIMInterface::access called with addr 0xd10000e6, pim_mode=0
271633000: board.pim.mem_ctrl.dram: Normal DRAM access at address 0xd10000e6
271704000: board.pim.mem_ctrl.dram: PIMInterface::access called with addr 0xd00020e8, pim_mode=0
271704000: board.pim.mem_ctrl.dram: Normal DRAM access at address 0xd00020e8
271765000: board.pim.mem_ctrl.dram: PIMInterface::access called with addr 0xd10000e8, pim_mode=0
271765000: board.pim.mem_ctrl.dram: Normal DRAM access at address 0xd10000e8
271836000: board.pim.mem_ctrl.dram: PIMInterface::access called with addr 0xd00020ea, pim_mode=0
271836000: board.pim.mem_ctrl.dram: Normal DRAM access at address 0xd00020ea
271897000: board.pim.mem_ctrl.dram: PIMInterface::access called with addr 0xd10000ea, pim_mode=0
271897000: board.pim.mem_ctrl.dram: Normal DRAM access at address 0xd10000ea
271968000: board.pim.mem_ctrl.dram: PIMInterface::access called with addr 0xd00020ec, pim_mode=0
271968000: board.pim.mem_ctrl.dram: Normal DRAM access at address 0xd00020ec
272029000: board.pim.mem_ctrl.dram: PIMInterface::access called with addr 0xd10000ec, pim_mode=0
272029000: board.pim.mem_ctrl.dram: Normal DRAM access at address 0xd10000ec
272100000: board.pim.mem_ctrl.dram: PIMInterface::access called with addr 0xd00020ee, pim_mode=0
272100000: board.pim.mem_ctrl.dram: Normal DRAM access at address 0xd00020ee
272161000: board.pim.mem_ctrl.dram: PIMInterface::access called with addr 0xd10000ee, pim_mode=0
272161000: board.pim.mem_ctrl.dram: Normal DRAM access at address 0xd10000ee
272232000: board.pim.mem_ctrl.dram: PIMInterface::access called with addr 0xd00020f0, pim_mode=0
272232000: board.pim.mem_ctrl.dram: Normal DRAM access at address 0xd00020f0
272293000: board.pim.mem_ctrl.dram: PIMInterface::access called with addr 0xd10000f0, pim_mode=0
272293000: board.pim.mem_ctrl.dram: Normal DRAM access at address 0xd10000f0
272364000: board.pim.mem_ctrl.dram: PIMInterface::access called with addr 0xd00020f2, pim_mode=0
272364000: board.pim.mem_ctrl.dram: Normal DRAM access at address 0xd00020f2
272425000: board.pim.mem_ctrl.dram: PIMInterface::access called with addr 0xd10000f2, pim_mode=0
272425000: board.pim.mem_ctrl.dram: Normal DRAM access at address 0xd10000f2
272496000: board.pim.mem_ctrl.dram: PIMInterface::access called with addr 0xd00020f4, pim_mode=0
272496000: board.pim.mem_ctrl.dram: Normal DRAM access at address 0xd00020f4
272557000: board.pim.mem_ctrl.dram: PIMInterface::access called with addr 0xd10000f4, pim_mode=0
272557000: board.pim.mem_ctrl.dram: Normal DRAM access at address 0xd10000f4
272628000: board.pim.mem_ctrl.dram: PIMInterface::access called with addr 0xd00020f6, pim_mode=0
272628000: board.pim.mem_ctrl.dram: Normal DRAM access at address 0xd00020f6
272689000: board.pim.mem_ctrl.dram: PIMInterface::access called with addr 0xd10000f6, pim_mode=0
272689000: board.pim.mem_ctrl.dram: Normal DRAM access at address 0xd10000f6
272760000: board.pim.mem_ctrl.dram: PIMInterface::access called with addr 0xd00020f8, pim_mode=0
272760000: board.pim.mem_ctrl.dram: Normal DRAM access at address 0xd00020f8
272821000: board.pim.mem_ctrl.dram: PIMInterface::access called with addr 0xd10000f8, pim_mode=0
272821000: board.pim.mem_ctrl.dram: Normal DRAM access at address 0xd10000f8
272892000: board.pim.mem_ctrl.dram: PIMInterface::access called with addr 0xd00020fa, pim_mode=0
272892000: board.pim.mem_ctrl.dram: Normal DRAM access at address 0xd00020fa
272953000: board.pim.mem_ctrl.dram: PIMInterface::access called with addr 0xd10000fa, pim_mode=0
272953000: board.pim.mem_ctrl.dram: Normal DRAM access at address 0xd10000fa
273024000: board.pim.mem_ctrl.dram: PIMInterface::access called with addr 0xd00020fc, pim_mode=0
273024000: board.pim.mem_ctrl.dram: Normal DRAM access at address 0xd00020fc
273085000: board.pim.mem_ctrl.dram: PIMInterface::access called with addr 0xd10000fc, pim_mode=0
273085000: board.pim.mem_ctrl.dram: Normal DRAM access at address 0xd10000fc
273156000: board.pim.mem_ctrl.dram: PIMInterface::access called with addr 0xd00020fe, pim_mode=0
273156000: board.pim.mem_ctrl.dram: Normal DRAM access at address 0xd00020fe
273217000: board.pim.mem_ctrl.dram: PIMInterface::access called with addr 0xd10000fe, pim_mode=0
273217000: board.pim.mem_ctrl.dram: Normal DRAM access at address 0xd10000fe
273288000: board.pim.mem_ctrl.dram: PIMInterface::access called with addr 0xd0002100, pim_mode=0
273288000: board.pim.mem_ctrl.dram: Normal DRAM access at address 0xd0002100
273349000: board.pim.mem_ctrl.dram: PIMInterface::access called with addr 0xd1000100, pim_mode=0
273349000: board.pim.mem_ctrl.dram: Normal DRAM access at address 0xd1000100
273420000: board.pim.mem_ctrl.dram: PIMInterface::access called with addr 0xd0002102, pim_mode=0
273420000: board.pim.mem_ctrl.dram: Normal DRAM access at address 0xd0002102
273481000: board.pim.mem_ctrl.dram: PIMInterface::access called with addr 0xd1000102, pim_mode=0
273481000: board.pim.mem_ctrl.dram: Normal DRAM access at address 0xd1000102
273552000: board.pim.mem_ctrl.dram: PIMInterface::access called with addr 0xd0002104, pim_mode=0
273552000: board.pim.mem_ctrl.dram: Normal DRAM access at address 0xd0002104
273613000: board.pim.mem_ctrl.dram: PIMInterface::access called with addr 0xd1000104, pim_mode=0
273613000: board.pim.mem_ctrl.dram: Normal DRAM access at address 0xd1000104
273684000: board.pim.mem_ctrl.dram: PIMInterface::access called with addr 0xd0002106, pim_mode=0
273684000: board.pim.mem_ctrl.dram: Normal DRAM access at address 0xd0002106
273745000: board.pim.mem_ctrl.dram: PIMInterface::access called with addr 0xd1000106, pim_mode=0
273745000: board.pim.mem_ctrl.dram: Normal DRAM access at address 0xd1000106
273834000: board.pim.mem_ctrl.dram: PIMInterface::access called with addr 0xd0002108, pim_mode=0
273834000: board.pim.mem_ctrl.dram: Normal DRAM access at address 0xd0002108
273895000: board.pim.mem_ctrl.dram: PIMInterface::access called with addr 0xd1000108, pim_mode=0
273895000: board.pim.mem_ctrl.dram: Normal DRAM access at address 0xd1000108
273966000: board.pim.mem_ctrl.dram: PIMInterface::access called with addr 0xd000210a, pim_mode=0
273966000: board.pim.mem_ctrl.dram: Normal DRAM access at address 0xd000210a
274027000: board.pim.mem_ctrl.dram: PIMInterface::access called with addr 0xd100010a, pim_mode=0
274027000: board.pim.mem_ctrl.dram: Normal DRAM access at address 0xd100010a
274098000: board.pim.mem_ctrl.dram: PIMInterface::access called with addr 0xd000210c, pim_mode=0
274098000: board.pim.mem_ctrl.dram: Normal DRAM access at address 0xd000210c
274159000: board.pim.mem_ctrl.dram: PIMInterface::access called with addr 0xd100010c, pim_mode=0
274159000: board.pim.mem_ctrl.dram: Normal DRAM access at address 0xd100010c
274230000: board.pim.mem_ctrl.dram: PIMInterface::access called with addr 0xd000210e, pim_mode=0
274230000: board.pim.mem_ctrl.dram: Normal DRAM access at address 0xd000210e
274291000: board.pim.mem_ctrl.dram: PIMInterface::access called with addr 0xd100010e, pim_mode=0
274291000: board.pim.mem_ctrl.dram: Normal DRAM access at address 0xd100010e
274362000: board.pim.mem_ctrl.dram: PIMInterface::access called with addr 0xd0002110, pim_mode=0
274362000: board.pim.mem_ctrl.dram: Normal DRAM access at address 0xd0002110
274423000: board.pim.mem_ctrl.dram: PIMInterface::access called with addr 0xd1000110, pim_mode=0
274423000: board.pim.mem_ctrl.dram: Normal DRAM access at address 0xd1000110
274494000: board.pim.mem_ctrl.dram: PIMInterface::access called with addr 0xd0002112, pim_mode=0
274494000: board.pim.mem_ctrl.dram: Normal DRAM access at address 0xd0002112
274555000: board.pim.mem_ctrl.dram: PIMInterface::access called with addr 0xd1000112, pim_mode=0
274555000: board.pim.mem_ctrl.dram: Normal DRAM access at address 0xd1000112
274626000: board.pim.mem_ctrl.dram: PIMInterface::access called with addr 0xd0002114, pim_mode=0
274626000: board.pim.mem_ctrl.dram: Normal DRAM access at address 0xd0002114
274687000: board.pim.mem_ctrl.dram: PIMInterface::access called with addr 0xd1000114, pim_mode=0
274687000: board.pim.mem_ctrl.dram: Normal DRAM access at address 0xd1000114
274758000: board.pim.mem_ctrl.dram: PIMInterface::access called with addr 0xd0002116, pim_mode=0
274758000: board.pim.mem_ctrl.dram: Normal DRAM access at address 0xd0002116
274819000: board.pim.mem_ctrl.dram: PIMInterface::access called with addr 0xd1000116, pim_mode=0
274819000: board.pim.mem_ctrl.dram: Normal DRAM access at address 0xd1000116
274890000: board.pim.mem_ctrl.dram: PIMInterface::access called with addr 0xd0002118, pim_mode=0
274890000: board.pim.mem_ctrl.dram: Normal DRAM access at address 0xd0002118
274951000: board.pim.mem_ctrl.dram: PIMInterface::access called with addr 0xd1000118, pim_mode=0
274951000: board.pim.mem_ctrl.dram: Normal DRAM access at address 0xd1000118
275022000: board.pim.mem_ctrl.dram: PIMInterface::access called with addr 0xd000211a, pim_mode=0
275022000: board.pim.mem_ctrl.dram: Normal DRAM access at address 0xd000211a
275083000: board.pim.mem_ctrl.dram: PIMInterface::access called with addr 0xd100011a, pim_mode=0
275083000: board.pim.mem_ctrl.dram: Normal DRAM access at address 0xd100011a
275154000: board.pim.mem_ctrl.dram: PIMInterface::access called with addr 0xd000211c, pim_mode=0
275154000: board.pim.mem_ctrl.dram: Normal DRAM access at address 0xd000211c
275215000: board.pim.mem_ctrl.dram: PIMInterface::access called with addr 0xd100011c, pim_mode=0
275215000: board.pim.mem_ctrl.dram: Normal DRAM access at address 0xd100011c
275286000: board.pim.mem_ctrl.dram: PIMInterface::access called with addr 0xd000211e, pim_mode=0
275286000: board.pim.mem_ctrl.dram: Normal DRAM access at address 0xd000211e
275347000: board.pim.mem_ctrl.dram: PIMInterface::access called with addr 0xd100011e, pim_mode=0
275347000: board.pim.mem_ctrl.dram: Normal DRAM access at address 0xd100011e
275418000: board.pim.mem_ctrl.dram: PIMInterface::access called with addr 0xd0002120, pim_mode=0
275418000: board.pim.mem_ctrl.dram: Normal DRAM access at address 0xd0002120
275479000: board.pim.mem_ctrl.dram: PIMInterface::access called with addr 0xd1000120, pim_mode=0
275479000: board.pim.mem_ctrl.dram: Normal DRAM access at address 0xd1000120
275550000: board.pim.mem_ctrl.dram: PIMInterface::access called with addr 0xd0002122, pim_mode=0
275550000: board.pim.mem_ctrl.dram: Normal DRAM access at address 0xd0002122
275611000: board.pim.mem_ctrl.dram: PIMInterface::access called with addr 0xd1000122, pim_mode=0
275611000: board.pim.mem_ctrl.dram: Normal DRAM access at address 0xd1000122
275682000: board.pim.mem_ctrl.dram: PIMInterface::access called with addr 0xd0002124, pim_mode=0
275682000: board.pim.mem_ctrl.dram: Normal DRAM access at address 0xd0002124
275743000: board.pim.mem_ctrl.dram: PIMInterface::access called with addr 0xd1000124, pim_mode=0
275743000: board.pim.mem_ctrl.dram: Normal DRAM access at address 0xd1000124
275814000: board.pim.mem_ctrl.dram: PIMInterface::access called with addr 0xd0002126, pim_mode=0
275814000: board.pim.mem_ctrl.dram: Normal DRAM access at address 0xd0002126
275875000: board.pim.mem_ctrl.dram: PIMInterface::access called with addr 0xd1000126, pim_mode=0
275875000: board.pim.mem_ctrl.dram: Normal DRAM access at address 0xd1000126
275946000: board.pim.mem_ctrl.dram: PIMInterface::access called with addr 0xd0002128, pim_mode=0
275946000: board.pim.mem_ctrl.dram: Normal DRAM access at address 0xd0002128
276007000: board.pim.mem_ctrl.dram: PIMInterface::access called with addr 0xd1000128, pim_mode=0
276007000: board.pim.mem_ctrl.dram: Normal DRAM access at address 0xd1000128
276078000: board.pim.mem_ctrl.dram: PIMInterface::access called with addr 0xd000212a, pim_mode=0
276078000: board.pim.mem_ctrl.dram: Normal DRAM access at address 0xd000212a
276139000: board.pim.mem_ctrl.dram: PIMInterface::access called with addr 0xd100012a, pim_mode=0
276139000: board.pim.mem_ctrl.dram: Normal DRAM access at address 0xd100012a
276210000: board.pim.mem_ctrl.dram: PIMInterface::access called with addr 0xd000212c, pim_mode=0
276210000: board.pim.mem_ctrl.dram: Normal DRAM access at address 0xd000212c
276271000: board.pim.mem_ctrl.dram: PIMInterface::access called with addr 0xd100012c, pim_mode=0
276271000: board.pim.mem_ctrl.dram: Normal DRAM access at address 0xd100012c
276342000: board.pim.mem_ctrl.dram: PIMInterface::access called with addr 0xd000212e, pim_mode=0
276342000: board.pim.mem_ctrl.dram: Normal DRAM access at address 0xd000212e
276403000: board.pim.mem_ctrl.dram: PIMInterface::access called with addr 0xd100012e, pim_mode=0
276403000: board.pim.mem_ctrl.dram: Normal DRAM access at address 0xd100012e
276474000: board.pim.mem_ctrl.dram: PIMInterface::access called with addr 0xd0002130, pim_mode=0
276474000: board.pim.mem_ctrl.dram: Normal DRAM access at address 0xd0002130
276535000: board.pim.mem_ctrl.dram: PIMInterface::access called with addr 0xd1000130, pim_mode=0
276535000: board.pim.mem_ctrl.dram: Normal DRAM access at address 0xd1000130
276606000: board.pim.mem_ctrl.dram: PIMInterface::access called with addr 0xd0002132, pim_mode=0
276606000: board.pim.mem_ctrl.dram: Normal DRAM access at address 0xd0002132
276667000: board.pim.mem_ctrl.dram: PIMInterface::access called with addr 0xd1000132, pim_mode=0
276667000: board.pim.mem_ctrl.dram: Normal DRAM access at address 0xd1000132
276738000: board.pim.mem_ctrl.dram: PIMInterface::access called with addr 0xd0002134, pim_mode=0
276738000: board.pim.mem_ctrl.dram: Normal DRAM access at address 0xd0002134
276799000: board.pim.mem_ctrl.dram: PIMInterface::access called with addr 0xd1000134, pim_mode=0
276799000: board.pim.mem_ctrl.dram: Normal DRAM access at address 0xd1000134
276870000: board.pim.mem_ctrl.dram: PIMInterface::access called with addr 0xd0002136, pim_mode=0
276870000: board.pim.mem_ctrl.dram: Normal DRAM access at address 0xd0002136
276931000: board.pim.mem_ctrl.dram: PIMInterface::access called with addr 0xd1000136, pim_mode=0
276931000: board.pim.mem_ctrl.dram: Normal DRAM access at address 0xd1000136
277002000: board.pim.mem_ctrl.dram: PIMInterface::access called with addr 0xd0002138, pim_mode=0
277002000: board.pim.mem_ctrl.dram: Normal DRAM access at address 0xd0002138
277063000: board.pim.mem_ctrl.dram: PIMInterface::access called with addr 0xd1000138, pim_mode=0
277063000: board.pim.mem_ctrl.dram: Normal DRAM access at address 0xd1000138
277134000: board.pim.mem_ctrl.dram: PIMInterface::access called with addr 0xd000213a, pim_mode=0
277134000: board.pim.mem_ctrl.dram: Normal DRAM access at address 0xd000213a
277195000: board.pim.mem_ctrl.dram: PIMInterface::access called with addr 0xd100013a, pim_mode=0
277195000: board.pim.mem_ctrl.dram: Normal DRAM access at address 0xd100013a
277266000: board.pim.mem_ctrl.dram: PIMInterface::access called with addr 0xd000213c, pim_mode=0
277266000: board.pim.mem_ctrl.dram: Normal DRAM access at address 0xd000213c
277327000: board.pim.mem_ctrl.dram: PIMInterface::access called with addr 0xd100013c, pim_mode=0
277327000: board.pim.mem_ctrl.dram: Normal DRAM access at address 0xd100013c
277398000: board.pim.mem_ctrl.dram: PIMInterface::access called with addr 0xd000213e, pim_mode=0
277398000: board.pim.mem_ctrl.dram: Normal DRAM access at address 0xd000213e
277459000: board.pim.mem_ctrl.dram: PIMInterface::access called with addr 0xd100013e, pim_mode=0
277459000: board.pim.mem_ctrl.dram: Normal DRAM access at address 0xd100013e
277530000: board.pim.mem_ctrl.dram: PIMInterface::access called with addr 0xd0002140, pim_mode=0
277530000: board.pim.mem_ctrl.dram: Normal DRAM access at address 0xd0002140
277591000: board.pim.mem_ctrl.dram: PIMInterface::access called with addr 0xd1000140, pim_mode=0
277591000: board.pim.mem_ctrl.dram: Normal DRAM access at address 0xd1000140
277662000: board.pim.mem_ctrl.dram: PIMInterface::access called with addr 0xd0002142, pim_mode=0
277662000: board.pim.mem_ctrl.dram: Normal DRAM access at address 0xd0002142
277723000: board.pim.mem_ctrl.dram: PIMInterface::access called with addr 0xd1000142, pim_mode=0
277723000: board.pim.mem_ctrl.dram: Normal DRAM access at address 0xd1000142
277794000: board.pim.mem_ctrl.dram: PIMInterface::access called with addr 0xd0002144, pim_mode=0
277794000: board.pim.mem_ctrl.dram: Normal DRAM access at address 0xd0002144
277855000: board.pim.mem_ctrl.dram: PIMInterface::access called with addr 0xd1000144, pim_mode=0
277855000: board.pim.mem_ctrl.dram: Normal DRAM access at address 0xd1000144
277926000: board.pim.mem_ctrl.dram: PIMInterface::access called with addr 0xd0002146, pim_mode=0
277926000: board.pim.mem_ctrl.dram: Normal DRAM access at address 0xd0002146
277987000: board.pim.mem_ctrl.dram: PIMInterface::access called with addr 0xd1000146, pim_mode=0
277987000: board.pim.mem_ctrl.dram: Normal DRAM access at address 0xd1000146
278058000: board.pim.mem_ctrl.dram: PIMInterface::access called with addr 0xd0002148, pim_mode=0
278058000: board.pim.mem_ctrl.dram: Normal DRAM access at address 0xd0002148
278119000: board.pim.mem_ctrl.dram: PIMInterface::access called with addr 0xd1000148, pim_mode=0
278119000: board.pim.mem_ctrl.dram: Normal DRAM access at address 0xd1000148
278190000: board.pim.mem_ctrl.dram: PIMInterface::access called with addr 0xd000214a, pim_mode=0
278190000: board.pim.mem_ctrl.dram: Normal DRAM access at address 0xd000214a
278251000: board.pim.mem_ctrl.dram: PIMInterface::access called with addr 0xd100014a, pim_mode=0
278251000: board.pim.mem_ctrl.dram: Normal DRAM access at address 0xd100014a
278322000: board.pim.mem_ctrl.dram: PIMInterface::access called with addr 0xd000214c, pim_mode=0
278322000: board.pim.mem_ctrl.dram: Normal DRAM access at address 0xd000214c
278383000: board.pim.mem_ctrl.dram: PIMInterface::access called with addr 0xd100014c, pim_mode=0
278383000: board.pim.mem_ctrl.dram: Normal DRAM access at address 0xd100014c
278454000: board.pim.mem_ctrl.dram: PIMInterface::access called with addr 0xd000214e, pim_mode=0
278454000: board.pim.mem_ctrl.dram: Normal DRAM access at address 0xd000214e
278515000: board.pim.mem_ctrl.dram: PIMInterface::access called with addr 0xd100014e, pim_mode=0
278515000: board.pim.mem_ctrl.dram: Normal DRAM access at address 0xd100014e
278586000: board.pim.mem_ctrl.dram: PIMInterface::access called with addr 0xd0002150, pim_mode=0
278586000: board.pim.mem_ctrl.dram: Normal DRAM access at address 0xd0002150
278647000: board.pim.mem_ctrl.dram: PIMInterface::access called with addr 0xd1000150, pim_mode=0
278647000: board.pim.mem_ctrl.dram: Normal DRAM access at address 0xd1000150
278718000: board.pim.mem_ctrl.dram: PIMInterface::access called with addr 0xd0002152, pim_mode=0
278718000: board.pim.mem_ctrl.dram: Normal DRAM access at address 0xd0002152
278779000: board.pim.mem_ctrl.dram: PIMInterface::access called with addr 0xd1000152, pim_mode=0
278779000: board.pim.mem_ctrl.dram: Normal DRAM access at address 0xd1000152
278850000: board.pim.mem_ctrl.dram: PIMInterface::access called with addr 0xd0002154, pim_mode=0
278850000: board.pim.mem_ctrl.dram: Normal DRAM access at address 0xd0002154
278911000: board.pim.mem_ctrl.dram: PIMInterface::access called with addr 0xd1000154, pim_mode=0
278911000: board.pim.mem_ctrl.dram: Normal DRAM access at address 0xd1000154
278982000: board.pim.mem_ctrl.dram: PIMInterface::access called with addr 0xd0002156, pim_mode=0
278982000: board.pim.mem_ctrl.dram: Normal DRAM access at address 0xd0002156
279043000: board.pim.mem_ctrl.dram: PIMInterface::access called with addr 0xd1000156, pim_mode=0
279043000: board.pim.mem_ctrl.dram: Normal DRAM access at address 0xd1000156
279114000: board.pim.mem_ctrl.dram: PIMInterface::access called with addr 0xd0002158, pim_mode=0
279114000: board.pim.mem_ctrl.dram: Normal DRAM access at address 0xd0002158
279175000: board.pim.mem_ctrl.dram: PIMInterface::access called with addr 0xd1000158, pim_mode=0
279175000: board.pim.mem_ctrl.dram: Normal DRAM access at address 0xd1000158
279246000: board.pim.mem_ctrl.dram: PIMInterface::access called with addr 0xd000215a, pim_mode=0
279246000: board.pim.mem_ctrl.dram: Normal DRAM access at address 0xd000215a
279307000: board.pim.mem_ctrl.dram: PIMInterface::access called with addr 0xd100015a, pim_mode=0
279307000: board.pim.mem_ctrl.dram: Normal DRAM access at address 0xd100015a
279378000: board.pim.mem_ctrl.dram: PIMInterface::access called with addr 0xd000215c, pim_mode=0
279378000: board.pim.mem_ctrl.dram: Normal DRAM access at address 0xd000215c
279439000: board.pim.mem_ctrl.dram: PIMInterface::access called with addr 0xd100015c, pim_mode=0
279439000: board.pim.mem_ctrl.dram: Normal DRAM access at address 0xd100015c
279510000: board.pim.mem_ctrl.dram: PIMInterface::access called with addr 0xd000215e, pim_mode=0
279510000: board.pim.mem_ctrl.dram: Normal DRAM access at address 0xd000215e
279571000: board.pim.mem_ctrl.dram: PIMInterface::access called with addr 0xd100015e, pim_mode=0
279571000: board.pim.mem_ctrl.dram: Normal DRAM access at address 0xd100015e
279642000: board.pim.mem_ctrl.dram: PIMInterface::access called with addr 0xd0002160, pim_mode=0
279642000: board.pim.mem_ctrl.dram: Normal DRAM access at address 0xd0002160
279703000: board.pim.mem_ctrl.dram: PIMInterface::access called with addr 0xd1000160, pim_mode=0
279703000: board.pim.mem_ctrl.dram: Normal DRAM access at address 0xd1000160
279774000: board.pim.mem_ctrl.dram: PIMInterface::access called with addr 0xd0002162, pim_mode=0
279774000: board.pim.mem_ctrl.dram: Normal DRAM access at address 0xd0002162
279835000: board.pim.mem_ctrl.dram: PIMInterface::access called with addr 0xd1000162, pim_mode=0
279835000: board.pim.mem_ctrl.dram: Normal DRAM access at address 0xd1000162
279906000: board.pim.mem_ctrl.dram: PIMInterface::access called with addr 0xd0002164, pim_mode=0
279906000: board.pim.mem_ctrl.dram: Normal DRAM access at address 0xd0002164
279967000: board.pim.mem_ctrl.dram: PIMInterface::access called with addr 0xd1000164, pim_mode=0
279967000: board.pim.mem_ctrl.dram: Normal DRAM access at address 0xd1000164
280038000: board.pim.mem_ctrl.dram: PIMInterface::access called with addr 0xd0002166, pim_mode=0
280038000: board.pim.mem_ctrl.dram: Normal DRAM access at address 0xd0002166
280099000: board.pim.mem_ctrl.dram: PIMInterface::access called with addr 0xd1000166, pim_mode=0
280099000: board.pim.mem_ctrl.dram: Normal DRAM access at address 0xd1000166
280170000: board.pim.mem_ctrl.dram: PIMInterface::access called with addr 0xd0002168, pim_mode=0
280170000: board.pim.mem_ctrl.dram: Normal DRAM access at address 0xd0002168
280231000: board.pim.mem_ctrl.dram: PIMInterface::access called with addr 0xd1000168, pim_mode=0
280231000: board.pim.mem_ctrl.dram: Normal DRAM access at address 0xd1000168
280302000: board.pim.mem_ctrl.dram: PIMInterface::access called with addr 0xd000216a, pim_mode=0
280302000: board.pim.mem_ctrl.dram: Normal DRAM access at address 0xd000216a
280363000: board.pim.mem_ctrl.dram: PIMInterface::access called with addr 0xd100016a, pim_mode=0
280363000: board.pim.mem_ctrl.dram: Normal DRAM access at address 0xd100016a
280434000: board.pim.mem_ctrl.dram: PIMInterface::access called with addr 0xd000216c, pim_mode=0
280434000: board.pim.mem_ctrl.dram: Normal DRAM access at address 0xd000216c
280495000: board.pim.mem_ctrl.dram: PIMInterface::access called with addr 0xd100016c, pim_mode=0
280495000: board.pim.mem_ctrl.dram: Normal DRAM access at address 0xd100016c
280566000: board.pim.mem_ctrl.dram: PIMInterface::access called with addr 0xd000216e, pim_mode=0
280566000: board.pim.mem_ctrl.dram: Normal DRAM access at address 0xd000216e
280627000: board.pim.mem_ctrl.dram: PIMInterface::access called with addr 0xd100016e, pim_mode=0
280627000: board.pim.mem_ctrl.dram: Normal DRAM access at address 0xd100016e
280698000: board.pim.mem_ctrl.dram: PIMInterface::access called with addr 0xd0002170, pim_mode=0
280698000: board.pim.mem_ctrl.dram: Normal DRAM access at address 0xd0002170
280759000: board.pim.mem_ctrl.dram: PIMInterface::access called with addr 0xd1000170, pim_mode=0
280759000: board.pim.mem_ctrl.dram: Normal DRAM access at address 0xd1000170
280830000: board.pim.mem_ctrl.dram: PIMInterface::access called with addr 0xd0002172, pim_mode=0
280830000: board.pim.mem_ctrl.dram: Normal DRAM access at address 0xd0002172
280891000: board.pim.mem_ctrl.dram: PIMInterface::access called with addr 0xd1000172, pim_mode=0
280891000: board.pim.mem_ctrl.dram: Normal DRAM access at address 0xd1000172
280962000: board.pim.mem_ctrl.dram: PIMInterface::access called with addr 0xd0002174, pim_mode=0
280962000: board.pim.mem_ctrl.dram: Normal DRAM access at address 0xd0002174
281023000: board.pim.mem_ctrl.dram: PIMInterface::access called with addr 0xd1000174, pim_mode=0
281023000: board.pim.mem_ctrl.dram: Normal DRAM access at address 0xd1000174
281094000: board.pim.mem_ctrl.dram: PIMInterface::access called with addr 0xd0002176, pim_mode=0
281094000: board.pim.mem_ctrl.dram: Normal DRAM access at address 0xd0002176
281155000: board.pim.mem_ctrl.dram: PIMInterface::access called with addr 0xd1000176, pim_mode=0
281155000: board.pim.mem_ctrl.dram: Normal DRAM access at address 0xd1000176
281226000: board.pim.mem_ctrl.dram: PIMInterface::access called with addr 0xd0002178, pim_mode=0
281226000: board.pim.mem_ctrl.dram: Normal DRAM access at address 0xd0002178
281287000: board.pim.mem_ctrl.dram: PIMInterface::access called with addr 0xd1000178, pim_mode=0
281287000: board.pim.mem_ctrl.dram: Normal DRAM access at address 0xd1000178
281358000: board.pim.mem_ctrl.dram: PIMInterface::access called with addr 0xd000217a, pim_mode=0
281358000: board.pim.mem_ctrl.dram: Normal DRAM access at address 0xd000217a
281419000: board.pim.mem_ctrl.dram: PIMInterface::access called with addr 0xd100017a, pim_mode=0
281419000: board.pim.mem_ctrl.dram: Normal DRAM access at address 0xd100017a
281490000: board.pim.mem_ctrl.dram: PIMInterface::access called with addr 0xd000217c, pim_mode=0
281490000: board.pim.mem_ctrl.dram: Normal DRAM access at address 0xd000217c
281551000: board.pim.mem_ctrl.dram: PIMInterface::access called with addr 0xd100017c, pim_mode=0
281551000: board.pim.mem_ctrl.dram: Normal DRAM access at address 0xd100017c
281622000: board.pim.mem_ctrl.dram: PIMInterface::access called with addr 0xd000217e, pim_mode=0
281622000: board.pim.mem_ctrl.dram: Normal DRAM access at address 0xd000217e
281683000: board.pim.mem_ctrl.dram: PIMInterface::access called with addr 0xd100017e, pim_mode=0
281683000: board.pim.mem_ctrl.dram: Normal DRAM access at address 0xd100017e
281754000: board.pim.mem_ctrl.dram: PIMInterface::access called with addr 0xd0002180, pim_mode=0
281754000: board.pim.mem_ctrl.dram: Normal DRAM access at address 0xd0002180
281815000: board.pim.mem_ctrl.dram: PIMInterface::access called with addr 0xd1000180, pim_mode=0
281815000: board.pim.mem_ctrl.dram: Normal DRAM access at address 0xd1000180
281886000: board.pim.mem_ctrl.dram: PIMInterface::access called with addr 0xd0002182, pim_mode=0
281886000: board.pim.mem_ctrl.dram: Normal DRAM access at address 0xd0002182
281947000: board.pim.mem_ctrl.dram: PIMInterface::access called with addr 0xd1000182, pim_mode=0
281947000: board.pim.mem_ctrl.dram: Normal DRAM access at address 0xd1000182
282018000: board.pim.mem_ctrl.dram: PIMInterface::access called with addr 0xd0002184, pim_mode=0
282018000: board.pim.mem_ctrl.dram: Normal DRAM access at address 0xd0002184
282079000: board.pim.mem_ctrl.dram: PIMInterface::access called with addr 0xd1000184, pim_mode=0
282079000: board.pim.mem_ctrl.dram: Normal DRAM access at address 0xd1000184
282150000: board.pim.mem_ctrl.dram: PIMInterface::access called with addr 0xd0002186, pim_mode=0
282150000: board.pim.mem_ctrl.dram: Normal DRAM access at address 0xd0002186
282211000: board.pim.mem_ctrl.dram: PIMInterface::access called with addr 0xd1000186, pim_mode=0
282211000: board.pim.mem_ctrl.dram: Normal DRAM access at address 0xd1000186
282282000: board.pim.mem_ctrl.dram: PIMInterface::access called with addr 0xd0002188, pim_mode=0
282282000: board.pim.mem_ctrl.dram: Normal DRAM access at address 0xd0002188
282343000: board.pim.mem_ctrl.dram: PIMInterface::access called with addr 0xd1000188, pim_mode=0
282343000: board.pim.mem_ctrl.dram: Normal DRAM access at address 0xd1000188
282414000: board.pim.mem_ctrl.dram: PIMInterface::access called with addr 0xd000218a, pim_mode=0
282414000: board.pim.mem_ctrl.dram: Normal DRAM access at address 0xd000218a
282475000: board.pim.mem_ctrl.dram: PIMInterface::access called with addr 0xd100018a, pim_mode=0
282475000: board.pim.mem_ctrl.dram: Normal DRAM access at address 0xd100018a
282564000: board.pim.mem_ctrl.dram: PIMInterface::access called with addr 0xd000218c, pim_mode=0
282564000: board.pim.mem_ctrl.dram: Normal DRAM access at address 0xd000218c
282625000: board.pim.mem_ctrl.dram: PIMInterface::access called with addr 0xd100018c, pim_mode=0
282625000: board.pim.mem_ctrl.dram: Normal DRAM access at address 0xd100018c
282696000: board.pim.mem_ctrl.dram: PIMInterface::access called with addr 0xd000218e, pim_mode=0
282696000: board.pim.mem_ctrl.dram: Normal DRAM access at address 0xd000218e
282757000: board.pim.mem_ctrl.dram: PIMInterface::access called with addr 0xd100018e, pim_mode=0
282757000: board.pim.mem_ctrl.dram: Normal DRAM access at address 0xd100018e
282828000: board.pim.mem_ctrl.dram: PIMInterface::access called with addr 0xd0002190, pim_mode=0
282828000: board.pim.mem_ctrl.dram: Normal DRAM access at address 0xd0002190
282889000: board.pim.mem_ctrl.dram: PIMInterface::access called with addr 0xd1000190, pim_mode=0
282889000: board.pim.mem_ctrl.dram: Normal DRAM access at address 0xd1000190
282960000: board.pim.mem_ctrl.dram: PIMInterface::access called with addr 0xd0002192, pim_mode=0
282960000: board.pim.mem_ctrl.dram: Normal DRAM access at address 0xd0002192
283021000: board.pim.mem_ctrl.dram: PIMInterface::access called with addr 0xd1000192, pim_mode=0
283021000: board.pim.mem_ctrl.dram: Normal DRAM access at address 0xd1000192
283092000: board.pim.mem_ctrl.dram: PIMInterface::access called with addr 0xd0002194, pim_mode=0
283092000: board.pim.mem_ctrl.dram: Normal DRAM access at address 0xd0002194
283153000: board.pim.mem_ctrl.dram: PIMInterface::access called with addr 0xd1000194, pim_mode=0
283153000: board.pim.mem_ctrl.dram: Normal DRAM access at address 0xd1000194
283224000: board.pim.mem_ctrl.dram: PIMInterface::access called with addr 0xd0002196, pim_mode=0
283224000: board.pim.mem_ctrl.dram: Normal DRAM access at address 0xd0002196
283285000: board.pim.mem_ctrl.dram: PIMInterface::access called with addr 0xd1000196, pim_mode=0
283285000: board.pim.mem_ctrl.dram: Normal DRAM access at address 0xd1000196
283356000: board.pim.mem_ctrl.dram: PIMInterface::access called with addr 0xd0002198, pim_mode=0
283356000: board.pim.mem_ctrl.dram: Normal DRAM access at address 0xd0002198
283417000: board.pim.mem_ctrl.dram: PIMInterface::access called with addr 0xd1000198, pim_mode=0
283417000: board.pim.mem_ctrl.dram: Normal DRAM access at address 0xd1000198
283488000: board.pim.mem_ctrl.dram: PIMInterface::access called with addr 0xd000219a, pim_mode=0
283488000: board.pim.mem_ctrl.dram: Normal DRAM access at address 0xd000219a
283549000: board.pim.mem_ctrl.dram: PIMInterface::access called with addr 0xd100019a, pim_mode=0
283549000: board.pim.mem_ctrl.dram: Normal DRAM access at address 0xd100019a
283620000: board.pim.mem_ctrl.dram: PIMInterface::access called with addr 0xd000219c, pim_mode=0
283620000: board.pim.mem_ctrl.dram: Normal DRAM access at address 0xd000219c
283681000: board.pim.mem_ctrl.dram: PIMInterface::access called with addr 0xd100019c, pim_mode=0
283681000: board.pim.mem_ctrl.dram: Normal DRAM access at address 0xd100019c
283752000: board.pim.mem_ctrl.dram: PIMInterface::access called with addr 0xd000219e, pim_mode=0
283752000: board.pim.mem_ctrl.dram: Normal DRAM access at address 0xd000219e
283813000: board.pim.mem_ctrl.dram: PIMInterface::access called with addr 0xd100019e, pim_mode=0
283813000: board.pim.mem_ctrl.dram: Normal DRAM access at address 0xd100019e
283884000: board.pim.mem_ctrl.dram: PIMInterface::access called with addr 0xd00021a0, pim_mode=0
283884000: board.pim.mem_ctrl.dram: Normal DRAM access at address 0xd00021a0
283945000: board.pim.mem_ctrl.dram: PIMInterface::access called with addr 0xd10001a0, pim_mode=0
283945000: board.pim.mem_ctrl.dram: Normal DRAM access at address 0xd10001a0
284016000: board.pim.mem_ctrl.dram: PIMInterface::access called with addr 0xd00021a2, pim_mode=0
284016000: board.pim.mem_ctrl.dram: Normal DRAM access at address 0xd00021a2
284077000: board.pim.mem_ctrl.dram: PIMInterface::access called with addr 0xd10001a2, pim_mode=0
284077000: board.pim.mem_ctrl.dram: Normal DRAM access at address 0xd10001a2
284148000: board.pim.mem_ctrl.dram: PIMInterface::access called with addr 0xd00021a4, pim_mode=0
284148000: board.pim.mem_ctrl.dram: Normal DRAM access at address 0xd00021a4
284209000: board.pim.mem_ctrl.dram: PIMInterface::access called with addr 0xd10001a4, pim_mode=0
284209000: board.pim.mem_ctrl.dram: Normal DRAM access at address 0xd10001a4
284280000: board.pim.mem_ctrl.dram: PIMInterface::access called with addr 0xd00021a6, pim_mode=0
284280000: board.pim.mem_ctrl.dram: Normal DRAM access at address 0xd00021a6
284341000: board.pim.mem_ctrl.dram: PIMInterface::access called with addr 0xd10001a6, pim_mode=0
284341000: board.pim.mem_ctrl.dram: Normal DRAM access at address 0xd10001a6
284412000: board.pim.mem_ctrl.dram: PIMInterface::access called with addr 0xd00021a8, pim_mode=0
284412000: board.pim.mem_ctrl.dram: Normal DRAM access at address 0xd00021a8
284473000: board.pim.mem_ctrl.dram: PIMInterface::access called with addr 0xd10001a8, pim_mode=0
284473000: board.pim.mem_ctrl.dram: Normal DRAM access at address 0xd10001a8
284544000: board.pim.mem_ctrl.dram: PIMInterface::access called with addr 0xd00021aa, pim_mode=0
284544000: board.pim.mem_ctrl.dram: Normal DRAM access at address 0xd00021aa
284605000: board.pim.mem_ctrl.dram: PIMInterface::access called with addr 0xd10001aa, pim_mode=0
284605000: board.pim.mem_ctrl.dram: Normal DRAM access at address 0xd10001aa
284676000: board.pim.mem_ctrl.dram: PIMInterface::access called with addr 0xd00021ac, pim_mode=0
284676000: board.pim.mem_ctrl.dram: Normal DRAM access at address 0xd00021ac
284737000: board.pim.mem_ctrl.dram: PIMInterface::access called with addr 0xd10001ac, pim_mode=0
284737000: board.pim.mem_ctrl.dram: Normal DRAM access at address 0xd10001ac
284808000: board.pim.mem_ctrl.dram: PIMInterface::access called with addr 0xd00021ae, pim_mode=0
284808000: board.pim.mem_ctrl.dram: Normal DRAM access at address 0xd00021ae
284869000: board.pim.mem_ctrl.dram: PIMInterface::access called with addr 0xd10001ae, pim_mode=0
284869000: board.pim.mem_ctrl.dram: Normal DRAM access at address 0xd10001ae
284940000: board.pim.mem_ctrl.dram: PIMInterface::access called with addr 0xd00021b0, pim_mode=0
284940000: board.pim.mem_ctrl.dram: Normal DRAM access at address 0xd00021b0
285001000: board.pim.mem_ctrl.dram: PIMInterface::access called with addr 0xd10001b0, pim_mode=0
285001000: board.pim.mem_ctrl.dram: Normal DRAM access at address 0xd10001b0
285072000: board.pim.mem_ctrl.dram: PIMInterface::access called with addr 0xd00021b2, pim_mode=0
285072000: board.pim.mem_ctrl.dram: Normal DRAM access at address 0xd00021b2
[...]
6708676492: board.pim.mem_ctrl.dram: Normal DRAM access at address 0xd200113c
C[33][28] = 1965
6711351492: board.pim.mem_ctrl.dram: PIMInterface::access called with addr 0xd200113e, pim_mode=0
6711351492: board.pim.mem_ctrl.dram: Normal DRAM access at address 0xd200113e
C[33][29] = 2034
6714009000: board.pim.mem_ctrl.dram: PIMInterface::access called with addr 0xd2001140, pim_mode=0
6714009000: board.pim.mem_ctrl.dram: Normal DRAM access at address 0xd2001140
C[33][30] = 2103
6716687652: board.pim.mem_ctrl.dram: PIMInterface::access called with addr 0xd2001142, pim_mode=0
6716687652: board.pim.mem_ctrl.dram: Normal DRAM access at address 0xd2001142
C[33][31] = 2172
6719575732: board.pim.mem_ctrl.dram: PIMInterface::access called with addr 0xd2001144, pim_mode=0
6719575732: board.pim.mem_ctrl.dram: Normal DRAM access at address 0xd2001144
C[33][32] = 2241
6722250492: board.pim.mem_ctrl.dram: PIMInterface::access called with addr 0xd2001146, pim_mode=0
6722250492: board.pim.mem_ctrl.dram: Normal DRAM access at address 0xd2001146
C[33][33] = 2310
6724925492: board.pim.mem_ctrl.dram: PIMInterface::access called with addr 0xd2001148, pim_mode=0
6724925492: board.pim.mem_ctrl.dram: Normal DRAM access at address 0xd2001148
C[33][34] = 2379
6727614652: board.pim.mem_ctrl.dram: PIMInterface::access called with addr 0xd200114a, pim_mode=0
6727614652: board.pim.mem_ctrl.dram: Normal DRAM access at address 0xd200114a
C[33][35] = 2448
6730289492: board.pim.mem_ctrl.dram: PIMInterface::access called with addr 0xd200114c, pim_mode=0
6730289492: board.pim.mem_ctrl.dram: Normal DRAM access at address 0xd200114c
C[33][36] = 2517
6732964492: board.pim.mem_ctrl.dram: PIMInterface::access called with addr 0xd200114e, pim_mode=0
6732964492: board.pim.mem_ctrl.dram: Normal DRAM access at address 0xd200114e
C[33][37] = 2586
6735653652: board.pim.mem_ctrl.dram: PIMInterface::access called with addr 0xd2001150, pim_mode=0
6735653652: board.pim.mem_ctrl.dram: Normal DRAM access at address 0xd2001150
C[33][38] = 2655
6738328492: board.pim.mem_ctrl.dram: PIMInterface::access called with addr 0xd2001152, pim_mode=0
6738328492: board.pim.mem_ctrl.dram: Normal DRAM access at address 0xd2001152
C[33][39] = 2724
6741003492: board.pim.mem_ctrl.dram: PIMInterface::access called with addr 0xd2001154, pim_mode=0
6741003492: board.pim.mem_ctrl.dram: Normal DRAM access at address 0xd2001154
C[33][40] = 2793
6743692652: board.pim.mem_ctrl.dram: PIMInterface::access called with addr 0xd2001156, pim_mode=0
6743692652: board.pim.mem_ctrl.dram: Normal DRAM access at address 0xd2001156
C[33][41] = 2862
6746367492: board.pim.mem_ctrl.dram: PIMInterface::access called with addr 0xd2001158, pim_mode=0
6746367492: board.pim.mem_ctrl.dram: Normal DRAM access at address 0xd2001158
C[33][42] = 2931
6749042492: board.pim.mem_ctrl.dram: PIMInterface::access called with addr 0xd200115a, pim_mode=0
6749042492: board.pim.mem_ctrl.dram: Normal DRAM access at address 0xd200115a
C[33][43] = 3000
6751731652: board.pim.mem_ctrl.dram: PIMInterface::access called with addr 0xd200115c, pim_mode=0
6751731652: board.pim.mem_ctrl.dram: Normal DRAM access at address 0xd200115c
C[33][44] = 3069
6754406492: board.pim.mem_ctrl.dram: PIMInterface::access called with addr 0xd200115e, pim_mode=0
6754406492: board.pim.mem_ctrl.dram: Normal DRAM access at address 0xd200115e
C[33][45] = 3138
6757081492: board.pim.mem_ctrl.dram: PIMInterface::access called with addr 0xd2001160, pim_mode=0
6757081492: board.pim.mem_ctrl.dram: Normal DRAM access at address 0xd2001160
C[33][46] = 3207
6759770652: board.pim.mem_ctrl.dram: PIMInterface::access called with addr 0xd2001162, pim_mode=0
6759770652: board.pim.mem_ctrl.dram: Normal DRAM access at address 0xd2001162
C[33][47] = 3276
6762445492: board.pim.mem_ctrl.dram: PIMInterface::access called with addr 0xd2001164, pim_mode=0
6762445492: board.pim.mem_ctrl.dram: Normal DRAM access at address 0xd2001164
C[33][48] = 3345
6765120492: board.pim.mem_ctrl.dram: PIMInterface::access called with addr 0xd2001166, pim_mode=0
6765120492: board.pim.mem_ctrl.dram: Normal DRAM access at address 0xd2001166
C[33][49] = 3414
6767809652: board.pim.mem_ctrl.dram: PIMInterface::access called with addr 0xd2001168, pim_mode=0
6767809652: board.pim.mem_ctrl.dram: Normal DRAM access at address 0xd2001168
C[33][50] = 3483
6770484492: board.pim.mem_ctrl.dram: PIMInterface::access called with addr 0xd200116a, pim_mode=0
6770484492: board.pim.mem_ctrl.dram: Normal DRAM access at address 0xd200116a
C[33][51] = 3552
6773159492: board.pim.mem_ctrl.dram: PIMInterface::access called with addr 0xd200116c, pim_mode=0
6773159492: board.pim.mem_ctrl.dram: Normal DRAM access at address 0xd200116c
C[33][52] = 3621
6775848652: board.pim.mem_ctrl.dram: PIMInterface::access called with addr 0xd200116e, pim_mode=0
6775848652: board.pim.mem_ctrl.dram: Normal DRAM access at address 0xd200116e
C[33][53] = 3690
6778523492: board.pim.mem_ctrl.dram: PIMInterface::access called with addr 0xd2001170, pim_mode=0
6778523492: board.pim.mem_ctrl.dram: Normal DRAM access at address 0xd2001170
C[33][54] = 3759
6781198492: board.pim.mem_ctrl.dram: PIMInterface::access called with addr 0xd2001172, pim_mode=0
6781198492: board.pim.mem_ctrl.dram: Normal DRAM access at address 0xd2001172
C[33][55] = 3828
6783887652: board.pim.mem_ctrl.dram: PIMInterface::access called with addr 0xd2001174, pim_mode=0
6783887652: board.pim.mem_ctrl.dram: Normal DRAM access at address 0xd2001174
C[33][56] = 3897
6786562492: board.pim.mem_ctrl.dram: PIMInterface::access called with addr 0xd2001176, pim_mode=0
6786562492: board.pim.mem_ctrl.dram: Normal DRAM access at address 0xd2001176
C[33][57] = 3966
6789237492: board.pim.mem_ctrl.dram: PIMInterface::access called with addr 0xd2001178, pim_mode=0
6789237492: board.pim.mem_ctrl.dram: Normal DRAM access at address 0xd2001178
C[33][58] = 4035
6791926652: board.pim.mem_ctrl.dram: PIMInterface::access called with addr 0xd200117a, pim_mode=0
6791926652: board.pim.mem_ctrl.dram: Normal DRAM access at address 0xd200117a
C[33][59] = 4104
6794601492: board.pim.mem_ctrl.dram: PIMInterface::access called with addr 0xd200117c, pim_mode=0
6794601492: board.pim.mem_ctrl.dram: Normal DRAM access at address 0xd200117c
C[33][60] = 4173
6797434132: board.pim.mem_ctrl.dram: PIMInterface::access called with addr 0xd200117e, pim_mode=0
6797434132: board.pim.mem_ctrl.dram: Normal DRAM access at address 0xd200117e
C[33][61] = 4242
6800092000: board.pim.mem_ctrl.dram: PIMInterface::access called with addr 0xd2001180, pim_mode=0
6800092000: board.pim.mem_ctrl.dram: Normal DRAM access at address 0xd2001180
C[33][62] = 4311
6802756492: board.pim.mem_ctrl.dram: PIMInterface::access called with addr 0xd2001182, pim_mode=0
6802756492: board.pim.mem_ctrl.dram: Normal DRAM access at address 0xd2001182
C[33][63] = 4380
6805445652: board.pim.mem_ctrl.dram: PIMInterface::access called with addr 0xd2001184, pim_mode=0
6805445652: board.pim.mem_ctrl.dram: Normal DRAM access at address 0xd2001184
C[33][64] = 4449
6808120492: board.pim.mem_ctrl.dram: PIMInterface::access called with addr 0xd2001186, pim_mode=0
6808120492: board.pim.mem_ctrl.dram: Normal DRAM access at address 0xd2001186
C[33][65] = 4518
6810815492: board.pim.mem_ctrl.dram: PIMInterface::access called with addr 0xd2001188, pim_mode=0
6810815492: board.pim.mem_ctrl.dram: Normal DRAM access at address 0xd2001188
C[34][0] = 34
6813432652: board.pim.mem_ctrl.dram: PIMInterface::access called with addr 0xd200118a, pim_mode=0
6813432652: board.pim.mem_ctrl.dram: Normal DRAM access at address 0xd200118a
C[34][1] = 105
6816066492: board.pim.mem_ctrl.dram: PIMInterface::access called with addr 0xd200118c, pim_mode=0
6816066492: board.pim.mem_ctrl.dram: Normal DRAM access at address 0xd200118c
C[34][2] = 176
6818700492: board.pim.mem_ctrl.dram: PIMInterface::access called with addr 0xd200118e, pim_mode=0
6818700492: board.pim.mem_ctrl.dram: Normal DRAM access at address 0xd200118e
C[34][3] = 247
6821348652: board.pim.mem_ctrl.dram: PIMInterface::access called with addr 0xd2001190, pim_mode=0
6821348652: board.pim.mem_ctrl.dram: Normal DRAM access at address 0xd2001190
C[34][4] = 318
6823982492: board.pim.mem_ctrl.dram: PIMInterface::access called with addr 0xd2001192, pim_mode=0
6823982492: board.pim.mem_ctrl.dram: Normal DRAM access at address 0xd2001192
C[34][5] = 389
6826616492: board.pim.mem_ctrl.dram: PIMInterface::access called with addr 0xd2001194, pim_mode=0
6826616492: board.pim.mem_ctrl.dram: Normal DRAM access at address 0xd2001194
C[34][6] = 460
6829264652: board.pim.mem_ctrl.dram: PIMInterface::access called with addr 0xd2001196, pim_mode=0
6829264652: board.pim.mem_ctrl.dram: Normal DRAM access at address 0xd2001196
C[34][7] = 531
6831898492: board.pim.mem_ctrl.dram: PIMInterface::access called with addr 0xd2001198, pim_mode=0
6831898492: board.pim.mem_ctrl.dram: Normal DRAM access at address 0xd2001198
C[34][8] = 602
6834532492: board.pim.mem_ctrl.dram: PIMInterface::access called with addr 0xd200119a, pim_mode=0
6834532492: board.pim.mem_ctrl.dram: Normal DRAM access at address 0xd200119a
C[34][9] = 673
6837180652: board.pim.mem_ctrl.dram: PIMInterface::access called with addr 0xd200119c, pim_mode=0
6837180652: board.pim.mem_ctrl.dram: Normal DRAM access at address 0xd200119c
C[34][10] = 744
6839838492: board.pim.mem_ctrl.dram: PIMInterface::access called with addr 0xd200119e, pim_mode=0
6839838492: board.pim.mem_ctrl.dram: Normal DRAM access at address 0xd200119e
C[34][11] = 815
6842496492: board.pim.mem_ctrl.dram: PIMInterface::access called with addr 0xd20011a0, pim_mode=0
6842496492: board.pim.mem_ctrl.dram: Normal DRAM access at address 0xd20011a0
C[34][12] = 886
6845168652: board.pim.mem_ctrl.dram: PIMInterface::access called with addr 0xd20011a2, pim_mode=0
6845168652: board.pim.mem_ctrl.dram: Normal DRAM access at address 0xd20011a2
C[34][13] = 957
6847826492: board.pim.mem_ctrl.dram: PIMInterface::access called with addr 0xd20011a4, pim_mode=0
6847826492: board.pim.mem_ctrl.dram: Normal DRAM access at address 0xd20011a4
C[34][14] = 1028
6850501492: board.pim.mem_ctrl.dram: PIMInterface::access called with addr 0xd20011a6, pim_mode=0
6850501492: board.pim.mem_ctrl.dram: Normal DRAM access at address 0xd20011a6
C[34][15] = 1099
6853190652: board.pim.mem_ctrl.dram: PIMInterface::access called with addr 0xd20011a8, pim_mode=0
6853190652: board.pim.mem_ctrl.dram: Normal DRAM access at address 0xd20011a8
C[34][16] = 1170
6855865492: board.pim.mem_ctrl.dram: PIMInterface::access called with addr 0xd20011aa, pim_mode=0
6855865492: board.pim.mem_ctrl.dram: Normal DRAM access at address 0xd20011aa
C[34][17] = 1241
6858540492: board.pim.mem_ctrl.dram: PIMInterface::access called with addr 0xd20011ac, pim_mode=0
6858540492: board.pim.mem_ctrl.dram: Normal DRAM access at address 0xd20011ac
C[34][18] = 1312
6861229652: board.pim.mem_ctrl.dram: PIMInterface::access called with addr 0xd20011ae, pim_mode=0
6861229652: board.pim.mem_ctrl.dram: Normal DRAM access at address 0xd20011ae
C[34][19] = 1383
6863904492: board.pim.mem_ctrl.dram: PIMInterface::access called with addr 0xd20011b0, pim_mode=0
6863904492: board.pim.mem_ctrl.dram: Normal DRAM access at address 0xd20011b0
C[34][20] = 1454
6866579492: board.pim.mem_ctrl.dram: PIMInterface::access called with addr 0xd20011b2, pim_mode=0
6866579492: board.pim.mem_ctrl.dram: Normal DRAM access at address 0xd20011b2
C[34][21] = 1525
6869268652: board.pim.mem_ctrl.dram: PIMInterface::access called with addr 0xd20011b4, pim_mode=0
6869268652: board.pim.mem_ctrl.dram: Normal DRAM access at address 0xd20011b4
C[34][22] = 1596
6871943492: board.pim.mem_ctrl.dram: PIMInterface::access called with addr 0xd20011b6, pim_mode=0
6871943492: board.pim.mem_ctrl.dram: Normal DRAM access at address 0xd20011b6
C[34][23] = 1667
6874618492: board.pim.mem_ctrl.dram: PIMInterface::access called with addr 0xd20011b8, pim_mode=0
6874618492: board.pim.mem_ctrl.dram: Normal DRAM access at address 0xd20011b8
C[34][24] = 1738
6877307652: board.pim.mem_ctrl.dram: PIMInterface::access called with addr 0xd20011ba, pim_mode=0
6877307652: board.pim.mem_ctrl.dram: Normal DRAM access at address 0xd20011ba
C[34][25] = 1809
6879982492: board.pim.mem_ctrl.dram: PIMInterface::access called with addr 0xd20011bc, pim_mode=0
6879982492: board.pim.mem_ctrl.dram: Normal DRAM access at address 0xd20011bc
C[34][26] = 1880
6882657492: board.pim.mem_ctrl.dram: PIMInterface::access called with addr 0xd20011be, pim_mode=0
6882657492: board.pim.mem_ctrl.dram: Normal DRAM access at address 0xd20011be
C[34][27] = 1951
6885315000: board.pim.mem_ctrl.dram: PIMInterface::access called with addr 0xd20011c0, pim_mode=0
6885315000: board.pim.mem_ctrl.dram: Normal DRAM access at address 0xd20011c0
C[34][28] = 2022
6887993652: board.pim.mem_ctrl.dram: PIMInterface::access called with addr 0xd20011c2, pim_mode=0
6887993652: board.pim.mem_ctrl.dram: Normal DRAM access at address 0xd20011c2
C[34][29] = 2093
6890864212: board.pim.mem_ctrl.dram: PIMInterface::access called with addr 0xd20011c4, pim_mode=0
6890864212: board.pim.mem_ctrl.dram: Normal DRAM access at address 0xd20011c4
C[34][30] = 2164
6893539492: board.pim.mem_ctrl.dram: PIMInterface::access called with addr 0xd20011c6, pim_mode=0
6893539492: board.pim.mem_ctrl.dram: Normal DRAM access at address 0xd20011c6
C[34][31] = 2235
6896214492: board.pim.mem_ctrl.dram: PIMInterface::access called with addr 0xd20011c8, pim_mode=0
6896214492: board.pim.mem_ctrl.dram: Normal DRAM access at address 0xd20011c8
C[34][32] = 2306
6898903652: board.pim.mem_ctrl.dram: PIMInterface::access called with addr 0xd20011ca, pim_mode=0
6898903652: board.pim.mem_ctrl.dram: Normal DRAM access at address 0xd20011ca
C[34][33] = 2377
6901578492: board.pim.mem_ctrl.dram: PIMInterface::access called with addr 0xd20011cc, pim_mode=0
6901578492: board.pim.mem_ctrl.dram: Normal DRAM access at address 0xd20011cc
C[34][34] = 2448
6904253492: board.pim.mem_ctrl.dram: PIMInterface::access called with addr 0xd20011ce, pim_mode=0
6904253492: board.pim.mem_ctrl.dram: Normal DRAM access at address 0xd20011ce
C[34][35] = 2519
6906942652: board.pim.mem_ctrl.dram: PIMInterface::access called with addr 0xd20011d0, pim_mode=0
6906942652: board.pim.mem_ctrl.dram: Normal DRAM access at address 0xd20011d0
C[34][36] = 2590
6909617492: board.pim.mem_ctrl.dram: PIMInterface::access called with addr 0xd20011d2, pim_mode=0
6909617492: board.pim.mem_ctrl.dram: Normal DRAM access at address 0xd20011d2
C[34][37] = 2661
6912292492: board.pim.mem_ctrl.dram: PIMInterface::access called with addr 0xd20011d4, pim_mode=0
6912292492: board.pim.mem_ctrl.dram: Normal DRAM access at address 0xd20011d4
C[34][38] = 2732
6914981652: board.pim.mem_ctrl.dram: PIMInterface::access called with addr 0xd20011d6, pim_mode=0
6914981652: board.pim.mem_ctrl.dram: Normal DRAM access at address 0xd20011d6
C[34][39] = 2803
6917656492: board.pim.mem_ctrl.dram: PIMInterface::access called with addr 0xd20011d8, pim_mode=0
6917656492: board.pim.mem_ctrl.dram: Normal DRAM access at address 0xd20011d8
C[34][40] = 2874
6920331492: board.pim.mem_ctrl.dram: PIMInterface::access called with addr 0xd20011da, pim_mode=0
6920331492: board.pim.mem_ctrl.dram: Normal DRAM access at address 0xd20011da
C[34][41] = 2945
6923020652: board.pim.mem_ctrl.dram: PIMInterface::access called with addr 0xd20011dc, pim_mode=0
6923020652: board.pim.mem_ctrl.dram: Normal DRAM access at address 0xd20011dc
C[34][42] = 3016
6925695492: board.pim.mem_ctrl.dram: PIMInterface::access called with addr 0xd20011de, pim_mode=0
6925695492: board.pim.mem_ctrl.dram: Normal DRAM access at address 0xd20011de
C[34][43] = 3087
6928370492: board.pim.mem_ctrl.dram: PIMInterface::access called with addr 0xd20011e0, pim_mode=0
6928370492: board.pim.mem_ctrl.dram: Normal DRAM access at address 0xd20011e0
C[34][44] = 3158
6931059652: board.pim.mem_ctrl.dram: PIMInterface::access called with addr 0xd20011e2, pim_mode=0
6931059652: board.pim.mem_ctrl.dram: Normal DRAM access at address 0xd20011e2
C[34][45] = 3229
6933734492: board.pim.mem_ctrl.dram: PIMInterface::access called with addr 0xd20011e4, pim_mode=0
6933734492: board.pim.mem_ctrl.dram: Normal DRAM access at address 0xd20011e4
C[34][46] = 3300
6936409492: board.pim.mem_ctrl.dram: PIMInterface::access called with addr 0xd20011e6, pim_mode=0
6936409492: board.pim.mem_ctrl.dram: Normal DRAM access at address 0xd20011e6
C[34][47] = 3371
6939098652: board.pim.mem_ctrl.dram: PIMInterface::access called with addr 0xd20011e8, pim_mode=0
6939098652: board.pim.mem_ctrl.dram: Normal DRAM access at address 0xd20011e8
C[34][48] = 3442
6941773492: board.pim.mem_ctrl.dram: PIMInterface::access called with addr 0xd20011ea, pim_mode=0
6941773492: board.pim.mem_ctrl.dram: Normal DRAM access at address 0xd20011ea
C[34][49] = 3513
6944448492: board.pim.mem_ctrl.dram: PIMInterface::access called with addr 0xd20011ec, pim_mode=0
6944448492: board.pim.mem_ctrl.dram: Normal DRAM access at address 0xd20011ec
C[34][50] = 3584
6947137652: board.pim.mem_ctrl.dram: PIMInterface::access called with addr 0xd20011ee, pim_mode=0
6947137652: board.pim.mem_ctrl.dram: Normal DRAM access at address 0xd20011ee
C[34][51] = 3655
6949812492: board.pim.mem_ctrl.dram: PIMInterface::access called with addr 0xd20011f0, pim_mode=0
6949812492: board.pim.mem_ctrl.dram: Normal DRAM access at address 0xd20011f0
C[34][52] = 3726
6952487492: board.pim.mem_ctrl.dram: PIMInterface::access called with addr 0xd20011f2, pim_mode=0
6952487492: board.pim.mem_ctrl.dram: Normal DRAM access at address 0xd20011f2
C[34][53] = 3797
6955176652: board.pim.mem_ctrl.dram: PIMInterface::access called with addr 0xd20011f4, pim_mode=0
6955176652: board.pim.mem_ctrl.dram: Normal DRAM access at address 0xd20011f4
C[34][54] = 3868
6957851492: board.pim.mem_ctrl.dram: PIMInterface::access called with addr 0xd20011f6, pim_mode=0
6957851492: board.pim.mem_ctrl.dram: Normal DRAM access at address 0xd20011f6
C[34][55] = 3939
6960526492: board.pim.mem_ctrl.dram: PIMInterface::access called with addr 0xd20011f8, pim_mode=0
6960526492: board.pim.mem_ctrl.dram: Normal DRAM access at address 0xd20011f8
C[34][56] = 4010
6963215652: board.pim.mem_ctrl.dram: PIMInterface::access called with addr 0xd20011fa, pim_mode=0
6963215652: board.pim.mem_ctrl.dram: Normal DRAM access at address 0xd20011fa
C[34][57] = 4081
6965890492: board.pim.mem_ctrl.dram: PIMInterface::access called with addr 0xd20011fc, pim_mode=0
6965890492: board.pim.mem_ctrl.dram: Normal DRAM access at address 0xd20011fc
C[34][58] = 4152
6968722612: board.pim.mem_ctrl.dram: PIMInterface::access called with addr 0xd20011fe, pim_mode=0
6968722612: board.pim.mem_ctrl.dram: Normal DRAM access at address 0xd20011fe
C[34][59] = 4223
6971380000: board.pim.mem_ctrl.dram: PIMInterface::access called with addr 0xd2001200, pim_mode=0
6971380000: board.pim.mem_ctrl.dram: Normal DRAM access at address 0xd2001200
C[34][60] = 4294
6974044492: board.pim.mem_ctrl.dram: PIMInterface::access called with addr 0xd2001202, pim_mode=0
6974044492: board.pim.mem_ctrl.dram: Normal DRAM access at address 0xd2001202
C[34][61] = 4365
6976733652: board.pim.mem_ctrl.dram: PIMInterface::access called with addr 0xd2001204, pim_mode=0
6976733652: board.pim.mem_ctrl.dram: Normal DRAM access at address 0xd2001204
C[34][62] = 4436
6979408492: board.pim.mem_ctrl.dram: PIMInterface::access called with addr 0xd2001206, pim_mode=0
6979408492: board.pim.mem_ctrl.dram: Normal DRAM access at address 0xd2001206
C[34][63] = 4507
6982083492: board.pim.mem_ctrl.dram: PIMInterface::access called with addr 0xd2001208, pim_mode=0
6982083492: board.pim.mem_ctrl.dram: Normal DRAM access at address 0xd2001208
C[34][64] = 4578
6984772652: board.pim.mem_ctrl.dram: PIMInterface::access called with addr 0xd200120a, pim_mode=0
6984772652: board.pim.mem_ctrl.dram: Normal DRAM access at address 0xd200120a
C[34][65] = 4649
